*
*
*
*                       LINUX           Mon Jan 20 18:59:05 2025
*
*
*
*  PROGRAM  advgen
*
*  HSPICE LIBRARY
*
*
*

*
.SUBCKT ALU VDD GND A B Cin S0 S1 Cout OUT
*
*
*  caps2d version: 10
*
*
*       TRANSISTOR CARDS
*
*
M|I0/|I0/|I3/|I0/avD1_1	|I0/avC10#6	|I0/|I0/|I3/D_nmos1v_avC_3#15	GND#152
+ GND#1	nmos1v#20ivpcell#20gpdk090	L=0.18U	W=0.42U
+ AD=0.1176P	AS=0.1176P	PD=1.4U	PS=1.4U
+ simW=4.2e-07 fw=4.2e-07 
M|I0/|I0/|I3/avD1_1	|I0/|I0/|I3/D_nmos1v_avC_3#7	|I0/|I0/avC8#16
+ GND#72	GND#1	nmos1v#20ivpcell#20gpdk090	L=0.18U	W=0.42U
+ AD=0.1176P	AS=0.1176P	PD=1.4U	PS=1.4U
+ simW=4.2e-07 fw=4.2e-07 
M|I0/|I0/|I3/avD1_2	|I0/|I0/|I3/D_nmos1v_avC_3#10	|I0/|I0/avC9#12
+ GND#153	GND#1	nmos1v#20ivpcell#20gpdk090	L=0.18U	W=0.42U
+ AD=0.1176P	AS=0.1176P	PD=1.4U	PS=1.4U
+ simW=4.2e-07 fw=4.2e-07 
M|I0/|I0/|I0/|I0/avD1_1	|I0/|I0/avC8#5	|I0/|I0/|I0/D_nmos1v_avC_5#16	GND#167
+ GND#1	nmos1v#20ivpcell#20gpdk090	L=0.18U	W=0.42U
+ AD=0.1176P	AS=0.1176P	PD=1.4U	PS=1.4U
+ simW=4.2e-07 fw=4.2e-07 
M|I0/|I0/|I0/avD1_1	|I0/|I0/|I0/avC6	S0#39	GND#82	GND#1
+ nmos1v#20ivpcell#20gpdk090	L=0.18U	W=0.42U
+ AD=0.1176P	AS=0.1176P	PD=1.4U	PS=1.4U
+ simW=4.2e-07 fw=4.2e-07 
M|I0/|I0/|I0/avD1_2	|I0/|I0/|I0/D_nmos1v_avC_5#8	avC12#18
+ |I0/|I0/|I0/avC6#5	GND#1	nmos1v#20ivpcell#20gpdk090	L=0.18U
+ W=0.42U
+ AD=0.1176P	AS=0.1176P	PD=1.4U	PS=1.4U
+ simW=4.2e-07 fw=4.2e-07 
M|I0/|I0/|I1/|I0/avD1_1	|I0/|I0/avC9#6	|I0/|I0/|I1/D_nmos1v_avC_5#16	GND#161
+ GND#1	nmos1v#20ivpcell#20gpdk090	L=0.18U	W=0.42U
+ AD=0.1176P	AS=0.1176P	PD=1.4U	PS=1.4U
+ simW=4.2e-07 fw=4.2e-07 
M|I0/|I0/|I1/avD1_1	|I0/|I0/|I1/avC6	avC11#20	GND#77	GND#1
+ nmos1v#20ivpcell#20gpdk090	L=0.18U	W=0.42U
+ AD=0.1176P	AS=0.1176P	PD=1.4U	PS=1.4U
+ simW=4.2e-07 fw=4.2e-07 
M|I0/|I0/|I1/avD1_2	|I0/|I0/|I1/D_nmos1v_avC_5#8	|I0/|I0/avC7#13
+ |I0/|I0/|I1/avC6#5	GND#1	nmos1v#20ivpcell#20gpdk090	L=0.18U
+ W=0.42U
+ AD=0.1176P	AS=0.1176P	PD=1.4U	PS=1.4U
+ simW=4.2e-07 fw=4.2e-07 
M|I0/|I0/|I2/avD1_1	|I0/|I0/avC7#4	S0#27	GND#37	GND#1
+ nmos1v#20ivpcell#20gpdk090	L=0.18U	W=0.42U
+ AD=0.1176P	AS=0.1176P	PD=1.4U	PS=1.4U
+ simW=4.2e-07 fw=4.2e-07 
M|I0/|I2/|I3/|I0/avD1_1	OUT#6	|I0/|I2/|I3/D_nmos1v_avC_3#15	GND#14	GND#1
+ nmos1v#20ivpcell#20gpdk090	L=0.18U	W=0.42U
+ AD=0.1176P	AS=0.1176P	PD=1.4U	PS=1.4U
+ simW=4.2e-07 fw=4.2e-07 
M|I0/|I2/|I3/avD1_1	|I0/|I2/|I3/D_nmos1v_avC_3#7	|I0/|I2/avC8#16
+ GND#16	GND#1	nmos1v#20ivpcell#20gpdk090	L=0.18U	W=0.42U
+ AD=0.1176P	AS=0.1176P	PD=1.4U	PS=1.4U
+ simW=4.2e-07 fw=4.2e-07 
M|I0/|I2/|I3/avD1_2	|I0/|I2/|I3/D_nmos1v_avC_3#10	|I0/|I2/avC9#12
+ GND#46	GND#1	nmos1v#20ivpcell#20gpdk090	L=0.18U	W=0.42U
+ AD=0.1176P	AS=0.1176P	PD=1.4U	PS=1.4U
+ simW=4.2e-07 fw=4.2e-07 
M|I0/|I2/|I0/|I0/avD1_1	|I0/|I2/avC8#5	|I0/|I2/|I0/D_nmos1v_avC_5#16	GND#130
+ GND#1	nmos1v#20ivpcell#20gpdk090	L=0.18U	W=0.42U
+ AD=0.1176P	AS=0.1176P	PD=1.4U	PS=1.4U
+ simW=4.2e-07 fw=4.2e-07 
M|I0/|I2/|I0/avD1_1	|I0/|I2/|I0/avC6	S1#23	GND#56	GND#1
+ nmos1v#20ivpcell#20gpdk090	L=0.18U	W=0.42U
+ AD=0.1176P	AS=0.1176P	PD=1.4U	PS=1.4U
+ simW=4.2e-07 fw=4.2e-07 
M|I0/|I2/|I0/avD1_2	|I0/|I2/|I0/D_nmos1v_avC_5#8	|I0/avC10#18
+ |I0/|I2/|I0/avC6#5	GND#1	nmos1v#20ivpcell#20gpdk090	L=0.18U
+ W=0.42U
+ AD=0.1176P	AS=0.1176P	PD=1.4U	PS=1.4U
+ simW=4.2e-07 fw=4.2e-07 
M|I0/|I2/|I1/|I0/avD1_1	|I0/|I2/avC9#6	|I0/|I2/|I1/D_nmos1v_avC_5#16	GND#124
+ GND#1	nmos1v#20ivpcell#20gpdk090	L=0.18U	W=0.42U
+ AD=0.1176P	AS=0.1176P	PD=1.4U	PS=1.4U
+ simW=4.2e-07 fw=4.2e-07 
M|I0/|I2/|I1/avD1_1	|I0/|I2/|I1/avC6	|I0/avC11#18	GND#51	GND#1
+ nmos1v#20ivpcell#20gpdk090	L=0.18U	W=0.42U
+ AD=0.1176P	AS=0.1176P	PD=1.4U	PS=1.4U
+ simW=4.2e-07 fw=4.2e-07 
M|I0/|I2/|I1/avD1_2	|I0/|I2/|I1/D_nmos1v_avC_5#8	|I0/|I2/avC7#13
+ |I0/|I2/|I1/avC6#5	GND#1	nmos1v#20ivpcell#20gpdk090	L=0.18U
+ W=0.42U
+ AD=0.1176P	AS=0.1176P	PD=1.4U	PS=1.4U
+ simW=4.2e-07 fw=4.2e-07 
M|I0/|I2/|I2/avD1_1	|I0/|I2/avC7#4	S1#17	GND#26	GND#1
+ nmos1v#20ivpcell#20gpdk090	L=0.18U	W=0.42U
+ AD=0.1176P	AS=0.1176P	PD=1.4U	PS=1.4U
+ simW=4.2e-07 fw=4.2e-07 
M|I0/|I1/|I3/|I0/avD1_1	|I0/avC11#7	|I0/|I1/|I3/D_nmos1v_avC_3#15	GND#222
+ GND#1	nmos1v#20ivpcell#20gpdk090	L=0.18U	W=0.42U
+ AD=0.1176P	AS=0.1176P	PD=1.4U	PS=1.4U
+ simW=4.2e-07 fw=4.2e-07 
M|I0/|I1/|I3/avD1_1	|I0/|I1/|I3/D_nmos1v_avC_3#7	|I0/|I1/avC8#16
+ GND#134	GND#1	nmos1v#20ivpcell#20gpdk090	L=0.18U	W=0.42U
+ AD=0.1176P	AS=0.1176P	PD=1.4U	PS=1.4U
+ simW=4.2e-07 fw=4.2e-07 
M|I0/|I1/|I3/avD1_2	|I0/|I1/|I3/D_nmos1v_avC_3#10	|I0/|I1/avC9#12
+ GND#223	GND#1	nmos1v#20ivpcell#20gpdk090	L=0.18U	W=0.42U
+ AD=0.1176P	AS=0.1176P	PD=1.4U	PS=1.4U
+ simW=4.2e-07 fw=4.2e-07 
M|I0/|I1/|I0/|I0/avD1_1	|I0/|I1/avC8#5	|I0/|I1/|I0/D_nmos1v_avC_5#16	GND#237
+ GND#1	nmos1v#20ivpcell#20gpdk090	L=0.18U	W=0.42U
+ AD=0.1176P	AS=0.1176P	PD=1.4U	PS=1.4U
+ simW=4.2e-07 fw=4.2e-07 
M|I0/|I1/|I0/avD1_1	|I0/|I1/|I0/avC6	S0#42	GND#144	GND#1
+ nmos1v#20ivpcell#20gpdk090	L=0.18U	W=0.42U
+ AD=0.1176P	AS=0.1176P	PD=1.4U	PS=1.4U
+ simW=4.2e-07 fw=4.2e-07 
M|I0/|I1/|I0/avD1_2	|I0/|I1/|I0/D_nmos1v_avC_5#8	avC10#27
+ |I0/|I1/|I0/avC6#5	GND#1	nmos1v#20ivpcell#20gpdk090	L=0.18U
+ W=0.42U
+ AD=0.1176P	AS=0.1176P	PD=1.4U	PS=1.4U
+ simW=4.2e-07 fw=4.2e-07 
M|I0/|I1/|I1/|I0/avD1_1	|I0/|I1/avC9#6	|I0/|I1/|I1/D_nmos1v_avC_5#16	GND#231
+ GND#1	nmos1v#20ivpcell#20gpdk090	L=0.18U	W=0.42U
+ AD=0.1176P	AS=0.1176P	PD=1.4U	PS=1.4U
+ simW=4.2e-07 fw=4.2e-07 
M|I0/|I1/|I1/avD1_1	|I0/|I1/|I1/avC6	avC13#30	GND#139
+ GND#1	nmos1v#20ivpcell#20gpdk090	L=0.18U	W=0.42U
+ AD=0.1176P	AS=0.1176P	PD=1.4U	PS=1.4U
+ simW=4.2e-07 fw=4.2e-07 
M|I0/|I1/|I1/avD1_2	|I0/|I1/|I1/D_nmos1v_avC_5#8	|I0/|I1/avC7#13
+ |I0/|I1/|I1/avC6#5	GND#1	nmos1v#20ivpcell#20gpdk090	L=0.18U
+ W=0.42U
+ AD=0.1176P	AS=0.1176P	PD=1.4U	PS=1.4U
+ simW=4.2e-07 fw=4.2e-07 
M|I0/|I1/|I2/avD1_1	|I0/|I1/avC7#4	S0#30	GND#68	GND#1
+ nmos1v#20ivpcell#20gpdk090	L=0.18U	W=0.42U
+ AD=0.1176P	AS=0.1176P	PD=1.4U	PS=1.4U
+ simW=4.2e-07 fw=4.2e-07 
M|I4/|I0/|I0/avD1_1	|I4/|I0/avC8#4	A#18	GND#97	GND#1
+ nmos1v#20ivpcell#20gpdk090	L=0.18U	W=0.42U
+ AD=0.1176P	AS=0.1176P	PD=1.4U	PS=1.4U
+ simW=4.2e-07 fw=4.2e-07 
M|I4/|I0/|I1/avD1_1	|I4/|I0/avC9#4	B#27	GND#197	GND#1
+ nmos1v#20ivpcell#20gpdk090	L=0.18U	W=0.42U
+ AD=0.1176P	AS=0.1176P	PD=1.4U	PS=1.4U
+ simW=4.2e-07 fw=4.2e-07 
M|I4/|I0/avD1_1	|I4/avC8#19	A#24	|I4/|I0/avC6#5	GND#1
+ nmos1v#20ivpcell#20gpdk090	L=0.18U	W=0.42U
+ AD=0.1176P	AS=0.1176P	PD=1.4U	PS=1.4U
+ simW=4.2e-07 fw=4.2e-07 
M|I4/|I0/avD1_2	|I4/|I0/avC6	B#33	GND#189	GND#1
+ nmos1v#20ivpcell#20gpdk090	L=0.18U	W=0.42U
+ AD=0.1176P	AS=0.1176P	PD=1.4U	PS=1.4U
+ simW=4.2e-07 fw=4.2e-07 
M|I4/|I0/avD1_3	|I4/avC8#22	|I4/|I0/avC8#10	|I4/|I0/avC7#5	GND#1
+ nmos1v#20ivpcell#20gpdk090	L=0.18U	W=0.42U
+ AD=0.1176P	AS=0.1176P	PD=1.4U	PS=1.4U
+ simW=4.2e-07 fw=4.2e-07 
M|I4/|I0/avD1_4	|I4/|I0/avC7	|I4/|I0/avC9#10	GND#266	GND#1
+ nmos1v#20ivpcell#20gpdk090	L=0.18U	W=0.42U
+ AD=0.1176P	AS=0.1176P	PD=1.4U	PS=1.4U
+ simW=4.2e-07 fw=4.2e-07 
M|I4/|I1/|I0/avD1_1	|I4/|I1/avC8#4	|I4/avC8#27	GND#187	GND#1
+ nmos1v#20ivpcell#20gpdk090	L=0.18U	W=0.42U
+ AD=0.1176P	AS=0.1176P	PD=1.4U	PS=1.4U
+ simW=4.2e-07 fw=4.2e-07 
M|I4/|I1/|I1/avD1_1	|I4/|I1/avC9#4	Cin#18	GND#265	GND#1
+ nmos1v#20ivpcell#20gpdk090	L=0.18U	W=0.42U
+ AD=0.1176P	AS=0.1176P	PD=1.4U	PS=1.4U
+ simW=4.2e-07 fw=4.2e-07 
M|I4/|I1/avD1_1	avC13#12	|I4/avC8#33	|I4/|I1/avC6#5	GND#1
+ nmos1v#20ivpcell#20gpdk090	L=0.18U	W=0.42U
+ AD=0.1176P	AS=0.1176P	PD=1.4U	PS=1.4U
+ simW=4.2e-07 fw=4.2e-07 
M|I4/|I1/avD1_2	|I4/|I1/avC6	Cin#24	GND#257	GND#1
+ nmos1v#20ivpcell#20gpdk090	L=0.18U	W=0.42U
+ AD=0.1176P	AS=0.1176P	PD=1.4U	PS=1.4U
+ simW=4.2e-07 fw=4.2e-07 
M|I4/|I1/avD1_3	avC13#15	|I4/|I1/avC8#10	|I4/|I1/avC7#5	GND#1
+ nmos1v#20ivpcell#20gpdk090	L=0.18U	W=0.42U
+ AD=0.1176P	AS=0.1176P	PD=1.4U	PS=1.4U
+ simW=4.2e-07 fw=4.2e-07 
M|I4/|I1/avD1_4	|I4/|I1/avC7	|I4/|I1/avC9#10	GND#281	GND#1
+ nmos1v#20ivpcell#20gpdk090	L=0.18U	W=0.42U
+ AD=0.1176P	AS=0.1176P	PD=1.4U	PS=1.4U
+ simW=4.2e-07 fw=4.2e-07 
M|I4/|I4/|I0/avD1_1	Cout#6	|I4/|I4/D_nmos1v_avC_3#15	GND#277
+ GND#1	nmos1v#20ivpcell#20gpdk090	L=0.18U	W=0.42U
+ AD=0.1176P	AS=0.1176P	PD=1.4U	PS=1.4U
+ simW=4.2e-07 fw=4.2e-07 
M|I4/|I4/avD1_1	|I4/|I4/D_nmos1v_avC_3#7	|I4/avC10#14	GND#241
+ GND#1	nmos1v#20ivpcell#20gpdk090	L=0.18U	W=0.42U
+ AD=0.1176P	AS=0.1176P	PD=1.4U	PS=1.4U
+ simW=4.2e-07 fw=4.2e-07 
M|I4/|I4/avD1_2	|I4/|I4/D_nmos1v_avC_3#10	|I4/avC9#14	GND#278
+ GND#1	nmos1v#20ivpcell#20gpdk090	L=0.18U	W=0.42U
+ AD=0.1176P	AS=0.1176P	PD=1.4U	PS=1.4U
+ simW=4.2e-07 fw=4.2e-07 
M|I4/|I3/|I0/avD1_1	|I4/avC10#6	|I4/|I3/D_nmos1v_avC_5#16	GND#249
+ GND#1	nmos1v#20ivpcell#20gpdk090	L=0.18U	W=0.42U
+ AD=0.1176P	AS=0.1176P	PD=1.4U	PS=1.4U
+ simW=4.2e-07 fw=4.2e-07 
M|I4/|I3/avD1_1	|I4/|I3/avC6	Cin#21	GND#171	GND#1
+ nmos1v#20ivpcell#20gpdk090	L=0.18U	W=0.42U
+ AD=0.1176P	AS=0.1176P	PD=1.4U	PS=1.4U
+ simW=4.2e-07 fw=4.2e-07 
M|I4/|I3/avD1_2	|I4/|I3/D_nmos1v_avC_5#8	|I4/avC8#30	|I4/|I3/avC6#5
+ GND#1	nmos1v#20ivpcell#20gpdk090	L=0.18U	W=0.42U
+ AD=0.1176P	AS=0.1176P	PD=1.4U	PS=1.4U
+ simW=4.2e-07 fw=4.2e-07 
M|I4/|I2/|I0/avD1_1	|I4/avC9#5	|I4/|I2/D_nmos1v_avC_5#16	GND#255
+ GND#1	nmos1v#20ivpcell#20gpdk090	L=0.18U	W=0.42U
+ AD=0.1176P	AS=0.1176P	PD=1.4U	PS=1.4U
+ simW=4.2e-07 fw=4.2e-07 
M|I4/|I2/avD1_1	|I4/|I2/avC6	B#30	GND#176	GND#1
+ nmos1v#20ivpcell#20gpdk090	L=0.18U	W=0.42U
+ AD=0.1176P	AS=0.1176P	PD=1.4U	PS=1.4U
+ simW=4.2e-07 fw=4.2e-07 
M|I4/|I2/avD1_2	|I4/|I2/D_nmos1v_avC_5#8	A#21	|I4/|I2/avC6#5	GND#1
+ nmos1v#20ivpcell#20gpdk090	L=0.18U	W=0.42U
+ AD=0.1176P	AS=0.1176P	PD=1.4U	PS=1.4U
+ simW=4.2e-07 fw=4.2e-07 
M|I3/|I0/avD1_1	|I3/avC8#4	A#34	GND#106	GND#1
+ nmos1v#20ivpcell#20gpdk090	L=0.18U	W=0.42U
+ AD=0.1176P	AS=0.1176P	PD=1.4U	PS=1.4U
+ simW=4.2e-07 fw=4.2e-07 
M|I3/|I1/avD1_1	|I3/avC9#4	B#47	GND#207	GND#1
+ nmos1v#20ivpcell#20gpdk090	L=0.18U	W=0.42U
+ AD=0.1176P	AS=0.1176P	PD=1.4U	PS=1.4U
+ simW=4.2e-07 fw=4.2e-07 
M|I3/avD1_1	avC10#12	A#48	|I3/avC6#5	GND#1
+ nmos1v#20ivpcell#20gpdk090	L=0.18U	W=0.42U
+ AD=0.1176P	AS=0.1176P	PD=1.4U	PS=1.4U
+ simW=4.2e-07 fw=4.2e-07 
M|I3/avD1_2	|I3/avC6	B#56	GND#199	GND#1
+ nmos1v#20ivpcell#20gpdk090	L=0.18U	W=0.42U
+ AD=0.1176P	AS=0.1176P	PD=1.4U	PS=1.4U
+ simW=4.2e-07 fw=4.2e-07 
M|I3/avD1_3	avC10#15	|I3/avC8#10	|I3/avC7#5	GND#1
+ nmos1v#20ivpcell#20gpdk090	L=0.18U	W=0.42U
+ AD=0.1176P	AS=0.1176P	PD=1.4U	PS=1.4U
+ simW=4.2e-07 fw=4.2e-07 
M|I3/avD1_4	|I3/avC7	|I3/avC9#10	GND#269	GND#1
+ nmos1v#20ivpcell#20gpdk090	L=0.18U	W=0.42U
+ AD=0.1176P	AS=0.1176P	PD=1.4U	PS=1.4U
+ simW=4.2e-07 fw=4.2e-07 
M|I2/|I0/avD1_1	avC11#5	|I2/D_nmos1v_avC_3#15	GND#213	GND#1
+ nmos1v#20ivpcell#20gpdk090	L=0.18U	W=0.42U
+ AD=0.1176P	AS=0.1176P	PD=1.4U	PS=1.4U
+ simW=4.2e-07 fw=4.2e-07 
M|I2/avD1_1	|I2/D_nmos1v_avC_3#7	A#47	GND#110	GND#1
+ nmos1v#20ivpcell#20gpdk090	L=0.18U	W=0.42U
+ AD=0.1176P	AS=0.1176P	PD=1.4U	PS=1.4U
+ simW=4.2e-07 fw=4.2e-07 
M|I2/avD1_2	|I2/D_nmos1v_avC_3#10	B#51	GND#214	GND#1
+ nmos1v#20ivpcell#20gpdk090	L=0.18U	W=0.42U
+ AD=0.1176P	AS=0.1176P	PD=1.4U	PS=1.4U
+ simW=4.2e-07 fw=4.2e-07 
M|I1/|I0/avD1_1	avC12#5	|I1/D_nmos1v_avC_5#16	GND#118	GND#1
+ nmos1v#20ivpcell#20gpdk090	L=0.18U	W=0.42U
+ AD=0.1176P	AS=0.1176P	PD=1.4U	PS=1.4U
+ simW=4.2e-07 fw=4.2e-07 
M|I1/avD1_1	|I1/avC6	B#50	GND#43	GND#1
+ nmos1v#20ivpcell#20gpdk090	L=0.18U	W=0.42U
+ AD=0.1176P	AS=0.1176P	PD=1.4U	PS=1.4U
+ simW=4.2e-07 fw=4.2e-07 
M|I1/avD1_2	|I1/D_nmos1v_avC_5#8	A#42	|I1/avC6#5	GND#1
+ nmos1v#20ivpcell#20gpdk090	L=0.18U	W=0.42U
+ AD=0.1176P	AS=0.1176P	PD=1.4U	PS=1.4U
+ simW=4.2e-07 fw=4.2e-07 
M|I0/|I0/|I3/|I0/avD7_1	|I0/avC10#9	|I0/|I0/|I3/D_nmos1v_avC_3#13	VDD#249
+ VDD#244	pmos1v#20ivpcell#20gpdk090	L=0.18U	W=0.985U
+ AD=0.2758P	AS=0.2758P	PD=2.53U	PS=2.53U
+ simW=9.85e-07 fw=9.85e-07 
M|I0/|I0/|I3/|PM0/avD7_1	|I0/|I0/|I3/avC7	|I0/|I0/avC8#14
+ VDD#255	VDD#250	pmos1v#20ivpcell#20gpdk090	L=0.18U
+ W=0.985U
+ AD=0.2758P	AS=0.2758P	PD=2.53U	PS=2.53U
+ simW=9.85e-07 fw=9.85e-07 
M|I0/|I0/|I3/|PM1/avD7_1	|I0/|I0/|I3/D_nmos1v_avC_3#3	|I0/|I0/avC9#14
+ |I0/|I0/|I3/avC7#5	VDD#143	pmos1v#20ivpcell#20gpdk090	L=0.18U
+ W=0.985U
+ AD=0.2758P	AS=0.2758P	PD=2.53U	PS=2.53U
+ simW=9.85e-07 fw=9.85e-07 
M|I0/|I0/|I0/|I0/avD7_1	|I0/|I0/avC8#8	|I0/|I0/|I0/D_nmos1v_avC_5#14	VDD#166
+ VDD#161	pmos1v#20ivpcell#20gpdk090	L=0.18U	W=0.985U
+ AD=0.2758P	AS=0.2758P	PD=2.53U	PS=2.53U
+ simW=9.85e-07 fw=9.85e-07 
M|I0/|I0/|I0/|PM1/avD7_1	|I0/|I0/|I0/D_nmos1v_avC_5#11	S0#37	VDD#94
+ VDD#89	pmos1v#20ivpcell#20gpdk090	L=0.18U	W=0.985U
+ AD=0.2758P	AS=0.2758P	PD=2.53U	PS=2.53U
+ simW=9.85e-07 fw=9.85e-07 
M|I0/|I0/|I0/|PM0/avD7_1	|I0/|I0/|I0/D_nmos1v_avC_5#5	avC12#20
+ VDD#157	VDD#154	pmos1v#20ivpcell#20gpdk090	L=0.18U
+ W=0.985U
+ AD=0.2758P	AS=0.2758P	PD=2.53U	PS=2.53U
+ simW=9.85e-07 fw=9.85e-07 
M|I0/|I0/|I1/|I0/avD7_1	|I0/|I0/avC9#9	|I0/|I0/|I1/D_nmos1v_avC_5#14	VDD#358
+ VDD#353	pmos1v#20ivpcell#20gpdk090	L=0.18U	W=0.985U
+ AD=0.2758P	AS=0.2758P	PD=2.53U	PS=2.53U
+ simW=9.85e-07 fw=9.85e-07 
M|I0/|I0/|I1/|PM1/avD7_1	|I0/|I0/|I1/D_nmos1v_avC_5#11	avC11#18
+ VDD#242	VDD#237	pmos1v#20ivpcell#20gpdk090	L=0.18U
+ W=0.985U
+ AD=0.2758P	AS=0.2758P	PD=2.53U	PS=2.53U
+ simW=9.85e-07 fw=9.85e-07 
M|I0/|I0/|I1/|PM0/avD7_1	|I0/|I0/|I1/D_nmos1v_avC_5#5	|I0/|I0/avC7#15
+ VDD#349	VDD#346	pmos1v#20ivpcell#20gpdk090	L=0.18U
+ W=0.985U
+ AD=0.2758P	AS=0.2758P	PD=2.53U	PS=2.53U
+ simW=9.85e-07 fw=9.85e-07 
M|I0/|I0/|I2/avD7_1	|I0/|I0/avC7#7	S0#25	VDD#152	VDD#147
+ pmos1v#20ivpcell#20gpdk090	L=0.18U	W=0.985U
+ AD=0.2758P	AS=0.2758P	PD=2.53U	PS=2.53U
+ simW=9.85e-07 fw=9.85e-07 
M|I0/|I2/|I3/|I0/avD7_1	OUT#9	|I0/|I2/|I3/D_nmos1v_avC_3#13	VDD#20	VDD#1
+ pmos1v#20ivpcell#20gpdk090	L=0.18U	W=0.985U
+ AD=0.2758P	AS=0.2758P	PD=2.53U	PS=2.53U
+ simW=9.85e-07 fw=9.85e-07 
M|I0/|I2/|I3/|PM0/avD7_1	|I0/|I2/|I3/avC7	|I0/|I2/avC8#14
+ VDD#69	VDD#64	pmos1v#20ivpcell#20gpdk090	L=0.18U
+ W=0.985U
+ AD=0.2758P	AS=0.2758P	PD=2.53U	PS=2.53U
+ simW=9.85e-07 fw=9.85e-07 
M|I0/|I2/|I3/|PM1/avD7_1	|I0/|I2/|I3/D_nmos1v_avC_3#3	|I0/|I2/avC9#14
+ |I0/|I2/|I3/avC7#5	VDD#22	pmos1v#20ivpcell#20gpdk090	L=0.18U
+ W=0.985U
+ AD=0.2758P	AS=0.2758P	PD=2.53U	PS=2.53U
+ simW=9.85e-07 fw=9.85e-07 
M|I0/|I2/|I0/|I0/avD7_1	|I0/|I2/avC8#8	|I0/|I2/|I0/D_nmos1v_avC_5#14	VDD#59
+ VDD#54	pmos1v#20ivpcell#20gpdk090	L=0.18U	W=0.985U
+ AD=0.2758P	AS=0.2758P	PD=2.53U	PS=2.53U
+ simW=9.85e-07 fw=9.85e-07 
M|I0/|I2/|I0/|PM1/avD7_1	|I0/|I2/|I0/D_nmos1v_avC_5#11	S1#21	VDD#52
+ VDD#12	pmos1v#20ivpcell#20gpdk090	L=0.18U	W=0.985U
+ AD=0.2758P	AS=0.2758P	PD=2.53U	PS=2.53U
+ simW=9.85e-07 fw=9.85e-07 
M|I0/|I2/|I0/|PM0/avD7_1	|I0/|I2/|I0/D_nmos1v_avC_5#5	|I0/avC10#20
+ VDD#61	VDD#17	pmos1v#20ivpcell#20gpdk090	L=0.18U
+ W=0.985U
+ AD=0.2758P	AS=0.2758P	PD=2.53U	PS=2.53U
+ simW=9.85e-07 fw=9.85e-07 
M|I0/|I2/|I1/|I0/avD7_1	|I0/|I2/avC9#9	|I0/|I2/|I1/D_nmos1v_avC_5#14	VDD#83
+ VDD#78	pmos1v#20ivpcell#20gpdk090	L=0.18U	W=0.985U
+ AD=0.2758P	AS=0.2758P	PD=2.53U	PS=2.53U
+ simW=9.85e-07 fw=9.85e-07 
M|I0/|I2/|I1/|PM1/avD7_1	|I0/|I2/|I1/D_nmos1v_avC_5#11	|I0/avC11#16
+ VDD#31	VDD#26	pmos1v#20ivpcell#20gpdk090	L=0.18U
+ W=0.985U
+ AD=0.2758P	AS=0.2758P	PD=2.53U	PS=2.53U
+ simW=9.85e-07 fw=9.85e-07 
M|I0/|I2/|I1/|PM0/avD7_1	|I0/|I2/|I1/D_nmos1v_avC_5#5	|I0/|I2/avC7#15
+ VDD#74	VDD#71	pmos1v#20ivpcell#20gpdk090	L=0.18U
+ W=0.985U
+ AD=0.2758P	AS=0.2758P	PD=2.53U	PS=2.53U
+ simW=9.85e-07 fw=9.85e-07 
M|I0/|I2/|I2/avD7_1	|I0/|I2/avC7#7	S1#15	VDD#50	VDD#45
+ pmos1v#20ivpcell#20gpdk090	L=0.18U	W=0.985U
+ AD=0.2758P	AS=0.2758P	PD=2.53U	PS=2.53U
+ simW=9.85e-07 fw=9.85e-07 
M|I0/|I1/|I3/|I0/avD7_1	|I0/avC11#10	|I0/|I1/|I3/D_nmos1v_avC_3#13	VDD#180
+ VDD#175	pmos1v#20ivpcell#20gpdk090	L=0.18U	W=0.985U
+ AD=0.2758P	AS=0.2758P	PD=2.53U	PS=2.53U
+ simW=9.85e-07 fw=9.85e-07 
M|I0/|I1/|I3/|PM0/avD7_1	|I0/|I1/|I3/avC7	|I0/|I1/avC8#14
+ VDD#186	VDD#181	pmos1v#20ivpcell#20gpdk090	L=0.18U
+ W=0.985U
+ AD=0.2758P	AS=0.2758P	PD=2.53U	PS=2.53U
+ simW=9.85e-07 fw=9.85e-07 
M|I0/|I1/|I3/|PM1/avD7_1	|I0/|I1/|I3/D_nmos1v_avC_3#3	|I0/|I1/avC9#14
+ |I0/|I1/|I3/avC7#5	VDD#99	pmos1v#20ivpcell#20gpdk090	L=0.18U
+ W=0.985U
+ AD=0.2758P	AS=0.2758P	PD=2.53U	PS=2.53U
+ simW=9.85e-07 fw=9.85e-07 
M|I0/|I1/|I0/|I0/avD7_1	|I0/|I1/avC8#8	|I0/|I1/|I0/D_nmos1v_avC_5#14	VDD#122
+ VDD#117	pmos1v#20ivpcell#20gpdk090	L=0.18U	W=0.985U
+ AD=0.2758P	AS=0.2758P	PD=2.53U	PS=2.53U
+ simW=9.85e-07 fw=9.85e-07 
M|I0/|I1/|I0/|PM1/avD7_1	|I0/|I1/|I0/D_nmos1v_avC_5#11	S0#40	VDD#43
+ VDD#38	pmos1v#20ivpcell#20gpdk090	L=0.18U	W=0.985U
+ AD=0.2758P	AS=0.2758P	PD=2.53U	PS=2.53U
+ simW=9.85e-07 fw=9.85e-07 
M|I0/|I1/|I0/|PM0/avD7_1	|I0/|I1/|I0/D_nmos1v_avC_5#5	avC10#29
+ VDD#113	VDD#110	pmos1v#20ivpcell#20gpdk090	L=0.18U
+ W=0.985U
+ AD=0.2758P	AS=0.2758P	PD=2.53U	PS=2.53U
+ simW=9.85e-07 fw=9.85e-07 
M|I0/|I1/|I1/|I0/avD7_1	|I0/|I1/avC9#9	|I0/|I1/|I1/D_nmos1v_avC_5#14	VDD#269
+ VDD#264	pmos1v#20ivpcell#20gpdk090	L=0.18U	W=0.985U
+ AD=0.2758P	AS=0.2758P	PD=2.53U	PS=2.53U
+ simW=9.85e-07 fw=9.85e-07 
M|I0/|I1/|I1/|PM1/avD7_1	|I0/|I1/|I1/D_nmos1v_avC_5#11	avC13#28
+ VDD#173	VDD#168	pmos1v#20ivpcell#20gpdk090	L=0.18U
+ W=0.985U
+ AD=0.2758P	AS=0.2758P	PD=2.53U	PS=2.53U
+ simW=9.85e-07 fw=9.85e-07 
M|I0/|I1/|I1/|PM0/avD7_1	|I0/|I1/|I1/D_nmos1v_avC_5#5	|I0/|I1/avC7#15
+ VDD#260	VDD#257	pmos1v#20ivpcell#20gpdk090	L=0.18U
+ W=0.985U
+ AD=0.2758P	AS=0.2758P	PD=2.53U	PS=2.53U
+ simW=9.85e-07 fw=9.85e-07 
M|I0/|I1/|I2/avD7_1	|I0/|I1/avC7#7	S0#28	VDD#108	VDD#103
+ pmos1v#20ivpcell#20gpdk090	L=0.18U	W=0.985U
+ AD=0.2758P	AS=0.2758P	PD=2.53U	PS=2.53U
+ simW=9.85e-07 fw=9.85e-07 
M|I4/|I0/|I0/avD7_1	|I4/|I0/avC8#7	A#16	VDD#138	VDD#133
+ pmos1v#20ivpcell#20gpdk090	L=0.18U	W=0.985U
+ AD=0.2758P	AS=0.2758P	PD=2.53U	PS=2.53U
+ simW=9.85e-07 fw=9.85e-07 
M|I4/|I0/|I1/avD7_1	|I4/|I0/avC9#7	B#25	VDD#235	VDD#230
+ pmos1v#20ivpcell#20gpdk090	L=0.18U	W=0.985U
+ AD=0.2758P	AS=0.2758P	PD=2.53U	PS=2.53U
+ simW=9.85e-07 fw=9.85e-07 
M|I4/|I0/|PM1/avD7_1	|I4/|I0/avC10	B#31	VDD#344	VDD#339
+ pmos1v#20ivpcell#20gpdk090	L=0.18U	W=0.985U
+ AD=0.2758P	AS=0.2758P	PD=2.53U	PS=2.53U
+ simW=9.85e-07 fw=9.85e-07 
M|I4/|I0/|PM0/avD7_1	|I4/|I0/avC10#9	A#26	VDD#222	VDD#219
+ pmos1v#20ivpcell#20gpdk090	L=0.18U	W=0.985U
+ AD=0.2758P	AS=0.2758P	PD=2.53U	PS=2.53U
+ simW=9.85e-07 fw=9.85e-07 
M|I4/|I0/|PM3/avD7_1	|I4/avC8#15	|I4/|I0/avC9#12
+ |I4/|I0/avC10#12	VDD#395	pmos1v#20ivpcell#20gpdk090	L=0.18U
+ W=0.985U
+ AD=0.2758P	AS=0.2758P	PD=2.53U	PS=2.53U
+ simW=9.85e-07 fw=9.85e-07 
M|I4/|I0/|PM2/avD7_1	|I4/avC8#10	|I4/|I0/avC8#12	|I4/|I0/avC10#6
+ VDD#226	pmos1v#20ivpcell#20gpdk090	L=0.18U	W=0.985U
+ AD=0.2758P	AS=0.2758P	PD=2.53U	PS=2.53U
+ simW=9.85e-07 fw=9.85e-07 
M|I4/|I1/|I0/avD7_1	|I4/|I1/avC8#7	|I4/avC8#25	VDD#218	VDD#213
+ pmos1v#20ivpcell#20gpdk090	L=0.18U	W=0.985U
+ AD=0.2758P	AS=0.2758P	PD=2.53U	PS=2.53U
+ simW=9.85e-07 fw=9.85e-07 
M|I4/|I1/|I1/avD7_1	|I4/|I1/avC9#7	Cin#16	VDD#337	VDD#332
+ pmos1v#20ivpcell#20gpdk090	L=0.18U	W=0.985U
+ AD=0.2758P	AS=0.2758P	PD=2.53U	PS=2.53U
+ simW=9.85e-07 fw=9.85e-07 
M|I4/|I1/|PM1/avD7_1	|I4/|I1/avC10	Cin#22	VDD#393	VDD#388
+ pmos1v#20ivpcell#20gpdk090	L=0.18U	W=0.985U
+ AD=0.2758P	AS=0.2758P	PD=2.53U	PS=2.53U
+ simW=9.85e-07 fw=9.85e-07 
M|I4/|I1/|PM0/avD7_1	|I4/|I1/avC10#9	|I4/avC8#35	VDD#324
+ VDD#321	pmos1v#20ivpcell#20gpdk090	L=0.18U	W=0.985U
+ AD=0.2758P	AS=0.2758P	PD=2.53U	PS=2.53U
+ simW=9.85e-07 fw=9.85e-07 
M|I4/|I1/|PM3/avD7_1	avC13#8	|I4/|I1/avC9#12
+ |I4/|I1/avC10#12	VDD#422	pmos1v#20ivpcell#20gpdk090	L=0.18U
+ W=0.985U
+ AD=0.2758P	AS=0.2758P	PD=2.53U	PS=2.53U
+ simW=9.85e-07 fw=9.85e-07 
M|I4/|I1/|PM2/avD7_1	avC13#5	|I4/|I1/avC8#12	|I4/|I1/avC10#6
+ VDD#328	pmos1v#20ivpcell#20gpdk090	L=0.18U	W=0.985U
+ AD=0.2758P	AS=0.2758P	PD=2.53U	PS=2.53U
+ simW=9.85e-07 fw=9.85e-07 
M|I4/|I4/|I0/avD7_1	Cout#9	|I4/|I4/D_nmos1v_avC_3#13	VDD#380
+ VDD#375	pmos1v#20ivpcell#20gpdk090	L=0.18U	W=0.985U
+ AD=0.2758P	AS=0.2758P	PD=2.53U	PS=2.53U
+ simW=9.85e-07 fw=9.85e-07 
M|I4/|I4/|PM0/avD7_1	|I4/|I4/avC7	|I4/avC10#12	VDD#386	VDD#381
+ pmos1v#20ivpcell#20gpdk090	L=0.18U	W=0.985U
+ AD=0.2758P	AS=0.2758P	PD=2.53U	PS=2.53U
+ simW=9.85e-07 fw=9.85e-07 
M|I4/|I4/|PM1/avD7_1	|I4/|I4/D_nmos1v_avC_3#3	|I4/avC9#16
+ |I4/|I4/avC7#5	VDD#318	pmos1v#20ivpcell#20gpdk090	L=0.18U
+ W=0.985U
+ AD=0.2758P	AS=0.2758P	PD=2.53U	PS=2.53U
+ simW=9.85e-07 fw=9.85e-07 
M|I4/|I3/|I0/avD7_1	|I4/avC10#9	|I4/|I3/D_nmos1v_avC_5#14	VDD#420
+ VDD#415	pmos1v#20ivpcell#20gpdk090	L=0.18U	W=0.985U
+ AD=0.2758P	AS=0.2758P	PD=2.53U	PS=2.53U
+ simW=9.85e-07 fw=9.85e-07 
M|I4/|I3/|PM1/avD7_1	|I4/|I3/D_nmos1v_avC_5#11	Cin#19	VDD#373
+ VDD#368	pmos1v#20ivpcell#20gpdk090	L=0.18U	W=0.985U
+ AD=0.2758P	AS=0.2758P	PD=2.53U	PS=2.53U
+ simW=9.85e-07 fw=9.85e-07 
M|I4/|I3/|PM0/avD7_1	|I4/|I3/D_nmos1v_avC_5#5	|I4/avC8#32	VDD#411
+ VDD#408	pmos1v#20ivpcell#20gpdk090	L=0.18U	W=0.985U
+ AD=0.2758P	AS=0.2758P	PD=2.53U	PS=2.53U
+ simW=9.85e-07 fw=9.85e-07 
M|I4/|I2/|I0/avD7_1	|I4/avC9#8	|I4/|I2/D_nmos1v_avC_5#14	VDD#437
+ VDD#432	pmos1v#20ivpcell#20gpdk090	L=0.18U	W=0.985U
+ AD=0.2758P	AS=0.2758P	PD=2.53U	PS=2.53U
+ simW=9.85e-07 fw=9.85e-07 
M|I4/|I2/|PM1/avD7_1	|I4/|I2/D_nmos1v_avC_5#11	B#28	VDD#406
+ VDD#401	pmos1v#20ivpcell#20gpdk090	L=0.18U	W=0.985U
+ AD=0.2758P	AS=0.2758P	PD=2.53U	PS=2.53U
+ simW=9.85e-07 fw=9.85e-07 
M|I4/|I2/|PM0/avD7_1	|I4/|I2/D_nmos1v_avC_5#5	A#23	VDD#428
+ VDD#425	pmos1v#20ivpcell#20gpdk090	L=0.18U	W=0.985U
+ AD=0.2758P	AS=0.2758P	PD=2.53U	PS=2.53U
+ simW=9.85e-07 fw=9.85e-07 
M|I3/|I0/avD7_1	|I3/avC8#7	A#32	VDD#208	VDD#203
+ pmos1v#20ivpcell#20gpdk090	L=0.18U	W=0.985U
+ AD=0.2758P	AS=0.2758P	PD=2.53U	PS=2.53U
+ simW=9.85e-07 fw=9.85e-07 
M|I3/|I1/avD7_1	|I3/avC9#7	B#45	VDD#313	VDD#308
+ pmos1v#20ivpcell#20gpdk090	L=0.18U	W=0.985U
+ AD=0.2758P	AS=0.2758P	PD=2.53U	PS=2.53U
+ simW=9.85e-07 fw=9.85e-07 
M|I3/|PM1/avD7_1	|I3/avC10	B#54	VDD#365	VDD#360
+ pmos1v#20ivpcell#20gpdk090	L=0.18U	W=0.985U
+ AD=0.2758P	AS=0.2758P	PD=2.53U	PS=2.53U
+ simW=9.85e-07 fw=9.85e-07 
M|I3/|PM0/avD7_1	|I3/avC10#9	A#50	VDD#300	VDD#297
+ pmos1v#20ivpcell#20gpdk090	L=0.18U	W=0.985U
+ AD=0.2758P	AS=0.2758P	PD=2.53U	PS=2.53U
+ simW=9.85e-07 fw=9.85e-07 
M|I3/|PM3/avD7_1	avC10#8	|I3/avC9#12	|I3/avC10#12	VDD#398
+ pmos1v#20ivpcell#20gpdk090	L=0.18U	W=0.985U
+ AD=0.2758P	AS=0.2758P	PD=2.53U	PS=2.53U
+ simW=9.85e-07 fw=9.85e-07 
M|I3/|PM2/avD7_1	avC10#5	|I3/avC8#12	|I3/avC10#6	VDD#304
+ pmos1v#20ivpcell#20gpdk090	L=0.18U	W=0.985U
+ AD=0.2758P	AS=0.2758P	PD=2.53U	PS=2.53U
+ simW=9.85e-07 fw=9.85e-07 
M|I2/|I0/avD7_1	avC11#8	|I2/D_nmos1v_avC_3#13	VDD#290	VDD#285
+ pmos1v#20ivpcell#20gpdk090	L=0.18U	W=0.985U
+ AD=0.2758P	AS=0.2758P	PD=2.53U	PS=2.53U
+ simW=9.85e-07 fw=9.85e-07 
M|I2/|PM0/avD7_1	|I2/avC7	A#45	VDD#296	VDD#291
+ pmos1v#20ivpcell#20gpdk090	L=0.18U	W=0.985U
+ AD=0.2758P	AS=0.2758P	PD=2.53U	PS=2.53U
+ simW=9.85e-07 fw=9.85e-07 
M|I2/|PM1/avD7_1	|I2/D_nmos1v_avC_3#3	B#53	|I2/avC7#5	VDD#197
+ pmos1v#20ivpcell#20gpdk090	L=0.18U	W=0.985U
+ AD=0.2758P	AS=0.2758P	PD=2.53U	PS=2.53U
+ simW=9.85e-07 fw=9.85e-07 
M|I1/|I0/avD7_1	avC12#8	|I1/D_nmos1v_avC_5#14	VDD#283	VDD#278
+ pmos1v#20ivpcell#20gpdk090	L=0.18U	W=0.985U
+ AD=0.2758P	AS=0.2758P	PD=2.53U	PS=2.53U
+ simW=9.85e-07 fw=9.85e-07 
M|I1/|PM1/avD7_1	|I1/D_nmos1v_avC_5#11	B#48	VDD#193	VDD#188
+ pmos1v#20ivpcell#20gpdk090	L=0.18U	W=0.985U
+ AD=0.2758P	AS=0.2758P	PD=2.53U	PS=2.53U
+ simW=9.85e-07 fw=9.85e-07 
M|I1/|PM0/avD7_1	|I1/D_nmos1v_avC_5#5	A#44	VDD#274	VDD#271
+ pmos1v#20ivpcell#20gpdk090	L=0.18U	W=0.985U
+ AD=0.2758P	AS=0.2758P	PD=2.53U	PS=2.53U
+ simW=9.85e-07 fw=9.85e-07 
*
*
*       RESISTOR AND CAP/DIODE CARDS
*
Ri1	S1#1	S1	   15.2597	$mt1	$X=4.005 $Y=112.44
Ri2	B#3	B#4	   39.7583	$mt1	$X=15.33 $Y=87.65
Ri3	B#4	B#5	   13.5439	$mt1	$X=8.52 $Y=128.8875
Ri4	B#5	B#6	    9.7591	$mt1	$X=8.52 $Y=146.395
Ri5	B#6	B	    5.6335	$mt1	$X=4.29 $Y=153.74
Ri6	B#4	B#7	   10.5873	$mt1	$X=8.985 $Y=118.725
Ri7	B#5	B#8	   10.6206	$mt1	$X=9.01 $Y=139.05
Ri8	B#6	B#2	    0.5872	$mt1	$X=8.965 $Y=153.74
Ri9	Cin#1	Cin	   48.9257	$mt1	$X=13.755 $Y=73.41
Ri10	S1#3	S1#2	   17.7000	$mt1	$X=16.425 $Y=112.44
Ri11	S0#1	S0	   24.8263	$mt1	$X=11.18 $Y=65.89
Ri12	Cin#3	Cin#4	   13.1267	$mt1	$X=36.065 $Y=73.41
Ri13	Cin#4	Cin#2	    6.7933	$mt1	$X=28.625 $Y=73.41
Ri14	A#9	A#10	   11.1816	$mt1	$X=39.555 $Y=103.69
Ri15	A#10	A#11	    0.1206	$mt1	$X=38.875 $Y=102.99
Ri16	A#11	A#12	    1.6883	$mt1	$X=38.015 $Y=102.99
Ri17	A#12	A#13	    2.3339	$mt1	$X=35.495 $Y=101.89
Ri18	A#13	A#3	    6.7867	$mt1	$X=28.63 $Y=101.89
Ri19	A#10	A#14	    1.4150	$mt1	$X=38.99 $Y=102.04
Ri20	A#14	A#15	   10.4667	$mt1	$X=39.62 $Y=101.09
Ri21	A#12	A#8	    2.8503	$mt1	$X=37.27 $Y=99.75
Ri22	B#14	B#15	   11.0250	$mt1	$X=40.045 $Y=98.33
Ri23	B#15	B#16	    0.6406	$mt1	$X=39.265 $Y=97.285
Ri24	B#16	B#17	    8.2383	$mt1	$X=37.37 $Y=97.285
Ri25	B#17	B#18	    1.4739	$mt1	$X=34.85 $Y=87.65
Ri26	B#18	B#11	    6.7800	$mt1	$X=28.635 $Y=87.65
Ri27	B#15	B#19	   11.3869	$mt1	$X=39.77 $Y=96.2425
Ri28	B#17	B#13	    6.4950	$mt1	$X=35.98 $Y=83.99
Ri29	A#19	A#20	   10.5000	$mt1	$X=40.805 $Y=80.96
Ri30	A#20	A#7	    0.5533	$mt1	$X=40.015 $Y=80.96
Ri31	B#20	B#21	   10.5000	$mt1	$X=40.805 $Y=80.33
Ri32	B#21	B#12	    0.6000	$mt1	$X=39.98 $Y=80.33
Ri34	|I4/|I2/avC6#2	|I4/|I2/avC6#4	    1.4494	$mt1
+ $X=42.4505 $Y=78.93
Ri35	|I4/|I2/avC6#4	|I4/|I2/avC6#5	   15.0000	$mt1
+ $X=42.3 $Y=79.92
Ri36	|I4/|I2/avC6	|I4/|I2/avC6#2	   15.0000	$mt1
+ $X=42.8 $Y=78.14
Ri37	B#23	B#24	   10.4667	$mt1	$X=42.78 $Y=98.33
Ri38	B#24	B#22	    0.8600	$mt1	$X=41.785 $Y=98.33
Ri39	|I4/|I2/D_nmos1v_avC_5	|I4/|I2/D_nmos1v_avC_5#2	   10.4667
+ $mt1	$X=45.3 $Y=80.67
Ri40	|I4/|I2/D_nmos1v_avC_5#2	|I4/|I2/D_nmos1v_avC_5#3
+     1.4021	$mt1	$X=43.875 $Y=80.67
Ri41	|I4/|I2/D_nmos1v_avC_5#3	|I4/|I2/D_nmos1v_avC_5#4
+     0.6027	$mt1	$X=42.8 $Y=81.15
Ri42	|I4/|I2/D_nmos1v_avC_5#4	|I4/|I2/D_nmos1v_avC_5#6
+     1.6402	$mt1	$X=42.115 $Y=81.63
Ri44	|I4/|I2/D_nmos1v_avC_5#3	|I4/|I2/D_nmos1v_avC_5#9
+     0.4939	$mt1	$X=42.8 $Y=80.37
Ri46	|I4/|I2/D_nmos1v_avC_5#4	|I4/|I2/D_nmos1v_avC_5#12
+     1.7802	$mt1	$X=43.59 $Y=81.63
Ri48	|I4/|I2/D_nmos1v_avC_5#5	|I4/|I2/D_nmos1v_avC_5#6
+     5.0000	$mt1	$X=41.43 $Y=82.7825
Ri49	|I4/|I2/D_nmos1v_avC_5#8	|I4/|I2/D_nmos1v_avC_5#9
+    15.0000	$mt1	$X=42.8 $Y=79.92
Ri50	|I4/|I2/D_nmos1v_avC_5#11	|I4/|I2/D_nmos1v_avC_5#12
+     5.0000	$mt1	$X=44.38 $Y=82.7825
Ri51	|I4/|I0/avC9	|I4/|I0/avC9#2	   10.9514	$mt1
+ $X=45.76 $Y=97.825
Ri52	|I4/|I0/avC9#2	|I4/|I0/avC9#3	    0.7421	$mt1
+ $X=44.71 $Y=98.33
Ri53	|I4/|I0/avC9#3	|I4/|I0/avC9#5	    0.4205	$mt1
+ $X=44.13 $Y=98.085
Ri55	|I4/|I0/avC9#3	|I4/|I0/avC9#8	    0.6222	$mt1
+ $X=44.13 $Y=98.585
Ri57	|I4/|I0/avC9#4	|I4/|I0/avC9#5	   15.0000	$mt1
+ $X=44.13 $Y=97.69
Ri58	|I4/|I0/avC9#7	|I4/|I0/avC9#8	    5.0000	$mt1
+ $X=44.13 $Y=99.2725
Ri59	|I4/|I0/avC8	|I4/|I0/avC8#2	   13.4361	$mt1
+ $X=44.555 $Y=102.52
Ri60	|I4/|I0/avC8#2	|I4/|I0/avC8#3	    0.7421	$mt1
+ $X=41.55 $Y=101.09
Ri61	|I4/|I0/avC8#3	|I4/|I0/avC8#5	    0.4205	$mt1
+ $X=40.97 $Y=100.845
Ri63	|I4/|I0/avC8#3	|I4/|I0/avC8#8	    0.6222	$mt1
+ $X=40.97 $Y=101.345
Ri65	|I4/|I0/avC8#4	|I4/|I0/avC8#5	   15.0000	$mt1
+ $X=40.97 $Y=100.45
Ri66	|I4/|I0/avC8#7	|I4/|I0/avC8#8	    5.0000	$mt1
+ $X=40.97 $Y=102.0325
Ri68	|I4/|I0/avC6#2	|I4/|I0/avC6#4	    1.8694	$mt1
+ $X=46.28 $Y=97.0045
Ri69	|I4/|I0/avC6#4	|I4/|I0/avC6#5	   15.0000	$mt1
+ $X=46.28 $Y=98.34
Ri70	|I4/|I0/avC6	|I4/|I0/avC6#2	   15.0000	$mt1
+ $X=46.78 $Y=95.93
Ri72	|I4/|I0/avC10#2	|I4/|I0/avC10#4	    1.3900	$mt1
+ $X=48.3655 $Y=103.44
Ri73	|I4/|I0/avC10#4	|I4/|I0/avC10#5	    1.2422	$mt1
+ $X=47.57 $Y=102.5
Ri74	|I4/|I0/avC10#5	|I4/|I0/avC10#7	6.458E-02	$mt1
+ $X=47.17 $Y=101.125
Ri76	|I4/|I0/avC10#4	|I4/|I0/avC10#10	    1.1100	$mt1
+ $X=47.17 $Y=103.44
Ri78	|I4/|I0/avC10#5	|I4/|I0/avC10#13	5.812E-02	$mt1
+ $X=47.93 $Y=101.125
Ri80	|I4/|I0/avC10	|I4/|I0/avC10#2	    5.0000	$mt1
+ $X=48.79 $Y=104.3625
Ri81	|I4/|I0/avC10#6	|I4/|I0/avC10#7	    5.0000	$mt1
+ $X=46.77 $Y=101.1225
Ri82	|I4/|I0/avC10#9	|I4/|I0/avC10#10	    5.0000	$mt1
+ $X=46.77 $Y=104.3625
Ri83	|I4/|I0/avC10#12	|I4/|I0/avC10#13	    5.0000	$mt1
+ $X=48.29 $Y=101.1225
Ri85	|I4/|I0/avC7#2	|I4/|I0/avC7#4	    1.8694	$mt1
+ $X=48.3 $Y=97.0045
Ri86	|I4/|I0/avC7#4	|I4/|I0/avC7#5	   15.0000	$mt1
+ $X=48.3 $Y=98.34
Ri87	|I4/|I0/avC7	|I4/|I0/avC7#2	   15.0000	$mt1
+ $X=48.8 $Y=95.93
Ri88	A#27	A#28	   11.1816	$mt1	$X=50.745 $Y=125.13
Ri89	A#28	A#29	    0.1206	$mt1	$X=50.065 $Y=124.43
Ri90	A#29	A#5	   17.5600	$mt1	$X=36.78 $Y=124.43
Ri91	A#28	A#30	    1.4150	$mt1	$X=50.18 $Y=123.48
Ri92	A#30	A#31	   10.4667	$mt1	$X=50.81 $Y=122.53
Ri93	B#34	B#35	   11.0250	$mt1	$X=51.235 $Y=119.77
Ri94	B#35	B#36	    0.6406	$mt1	$X=50.455 $Y=118.725
Ri95	B#36	B#10	   17.6133	$mt1	$X=36.74 $Y=118.725
Ri96	B#35	B#37	   11.3869	$mt1	$X=50.96 $Y=117.6825
Ri97	A#35	A#36	   10.4067	$mt1	$X=52.145 $Y=142.01
Ri98	A#36	A#1	   18.8800	$mt1	$X=37.68 $Y=142.01
Ri99	|I4/avC8#3	|I4/avC8#4	   11.1816	$mt1
+ $X=51.975 $Y=98
Ri100	|I4/avC8#4	|I4/avC8#5	    0.1206	$mt1
+ $X=51.295 $Y=97.3
Ri101	|I4/avC8#5	|I4/avC8#6	    0.3821	$mt1
+ $X=50.87 $Y=97.3
Ri102	|I4/avC8#6	|I4/avC8#7	    2.1886	$mt1
+ $X=50.56 $Y=98.7175
Ri103	|I4/avC8#7	|I4/avC8#8	    0.8369	$mt1
+ $X=49.42 $Y=100.135
Ri104	|I4/avC8#8	|I4/avC8#9	    0.8005	$mt1
+ $X=48.185 $Y=100.135
Ri105	|I4/avC8#9	|I4/avC8#11	    1.4933	$mt1
+ $X=46.925 $Y=100.135
Ri107	|I4/avC8#4	|I4/avC8#13	    1.4150	$mt1
+ $X=51.41 $Y=96.35
Ri108	|I4/avC8#13	|I4/avC8#14	   10.4667	$mt1
+ $X=52.04 $Y=95.4
Ri109	|I4/avC8#6	|I4/avC8	    6.5633	$mt1
+ $X=50.56 $Y=94.65
Ri110	|I4/avC8#8	|I4/avC8#16	    0.6256	$mt1
+ $X=48.79 $Y=100.4125
Ri112	|I4/avC8#9	|I4/avC8#18	    0.6794	$mt1
+ $X=47.58 $Y=99.5775
Ri113	|I4/avC8#18	|I4/avC8#20	    0.9452	$mt1
+ $X=47.18 $Y=99.02
Ri115	|I4/avC8#18	|I4/avC8#23	    1.2252	$mt1
+ $X=48.19 $Y=99.02
Ri117	|I4/avC8#10	|I4/avC8#11	    5.0000	$mt1
+ $X=46.27 $Y=101.1225
Ri118	|I4/avC8#15	|I4/avC8#16	    5.0000	$mt1
+ $X=48.79 $Y=101.1225
Ri119	|I4/avC8#19	|I4/avC8#20	   15.0000	$mt1
+ $X=46.78 $Y=98.34
Ri120	|I4/avC8#22	|I4/avC8#23	   15.0000	$mt1
+ $X=48.8 $Y=98.34
Ri121	B#39	B#40	   10.5000	$mt1	$X=52.305 $Y=155.68
Ri122	B#40	B#1	   28.7294	$mt1	$X=50.94 $Y=155.68
Ri123	A#37	A#38	   10.5000	$mt1	$X=52.305 $Y=156.31
Ri124	A#38	A#39	   27.8688	$mt1	$X=31.005 $Y=156.31
Ri125	A#39	A	   34.2082	$mt1	$X=10.08 $Y=176.9875
Ri126	A#39	A#40	    9.5241	$mt1	$X=10.08 $Y=149.16
Ri127	A#40	A#41	   11.7139	$mt1	$X=10.08 $Y=133.22
Ri128	A#41	A#4	   23.0483	$mt1	$X=10.08 $Y=113.16
Ri129	A#40	A#2	    7.9273	$mt1	$X=16.05 $Y=142.01
Ri130	A#41	A#6	    7.9406	$mt1	$X=16.06 $Y=124.43
Ri131	Cin#7	Cin#8	   11.0250	$mt1	$X=52.465 $Y=92.64
Ri132	Cin#8	Cin#9	    0.6406	$mt1	$X=51.685 $Y=91.595
Ri133	Cin#9	Cin#5	    2.4947	$mt1	$X=50.705 $Y=91.595
Ri134	Cin#8	Cin#10	   11.3869	$mt1	$X=52.19 $Y=90.5525
Ri135	Cin#11	Cin#12	   10.5000	$mt1	$X=53.225 $Y=80.33
Ri136	Cin#12	Cin#6	   11.7467	$mt1	$X=51.54 $Y=80.33
Ri137	|I4/avC8#28	|I4/avC8#29	   10.5000	$mt1
+ $X=53.225 $Y=80.96
Ri138	|I4/avC8#29	|I4/avC8#2	    2.4800	$mt1
+ $X=50.99 $Y=80.96
Ri139	B#41	B#42	   11.3133	$mt1	$X=52.825 $Y=139.05
Ri140	B#42	B#9	   18.8733	$mt1	$X=37.685 $Y=139.05
Ri142	|I1/avC6#2	|I1/avC6#4	    1.4494	$mt1
+ $X=53.9505 $Y=154.28
Ri143	|I1/avC6#4	|I1/avC6#5	   15.0000	$mt1
+ $X=53.8 $Y=155.27
Ri144	|I1/avC6	|I1/avC6#2	   15.0000	$mt1
+ $X=54.3 $Y=153.49
Ri145	B#43	B#44	   10.4667	$mt1	$X=53.97 $Y=119.77
Ri146	B#44	B#38	    0.8600	$mt1	$X=52.975 $Y=119.77
Ri147	S0#3	S0#2	   30.6133	$mt1	$X=38.95 $Y=65.89
Ri149	|I2/avC7#2	|I2/avC7#4	    1.9874	$mt1
+ $X=53.76 $Y=142.078
Ri150	|I2/avC7#4	|I2/avC7#5	    5.0000	$mt1
+ $X=54.17 $Y=140.6825
Ri151	|I2/avC7	|I2/avC7#2	    5.0000	$mt1
+ $X=54.67 $Y=143.0325
Ri153	|I4/|I3/avC6#2	|I4/|I3/avC6#4	    1.4494	$mt1
+ $X=54.8705 $Y=78.93
Ri154	|I4/|I3/avC6#4	|I4/|I3/avC6#5	   15.0000	$mt1
+ $X=54.72 $Y=79.92
Ri155	|I4/|I3/avC6	|I4/|I3/avC6#2	   15.0000	$mt1
+ $X=55.22 $Y=78.14
Ri156	Cin#14	Cin#15	   10.4667	$mt1	$X=55.2 $Y=92.64
Ri157	Cin#15	Cin#13	    0.8600	$mt1	$X=54.205 $Y=92.64
Ri158	|I4/avC9	|I4/avC9#2	   19.8094	$mt1
+ $X=52.505 $Y=73.66
Ri159	|I4/avC9#2	|I4/avC9#3	    0.3867	$mt1
+ $X=48.1 $Y=80.67
Ri160	|I4/avC9#3	|I4/avC9#4	    0.7421	$mt1
+ $X=47.23 $Y=80.67
Ri161	|I4/avC9#4	|I4/avC9#6	    0.4205	$mt1
+ $X=46.65 $Y=80.425
Ri163	|I4/avC9#4	|I4/avC9#9	    0.6222	$mt1
+ $X=46.65 $Y=80.925
Ri165	|I4/avC9#5	|I4/avC9#6	   15.0000	$mt1
+ $X=46.65 $Y=80.03
Ri166	|I4/avC9#8	|I4/avC9#9	    5.0000	$mt1
+ $X=46.65 $Y=81.6125
Ri167	|I3/avC9	|I3/avC9#2	   10.9514	$mt1
+ $X=56.95 $Y=119.265
Ri168	|I3/avC9#2	|I3/avC9#3	    0.7421	$mt1
+ $X=55.9 $Y=119.77
Ri169	|I3/avC9#3	|I3/avC9#5	    0.4205	$mt1
+ $X=55.32 $Y=119.525
Ri171	|I3/avC9#3	|I3/avC9#8	    0.6222	$mt1
+ $X=55.32 $Y=120.025
Ri173	|I3/avC9#4	|I3/avC9#5	   15.0000	$mt1
+ $X=55.32 $Y=119.13
Ri174	|I3/avC9#7	|I3/avC9#8	    5.0000	$mt1
+ $X=55.32 $Y=120.7125
Ri175	|I3/avC8	|I3/avC8#2	   13.4361	$mt1
+ $X=55.745 $Y=123.96
Ri176	|I3/avC8#2	|I3/avC8#3	    0.7421	$mt1
+ $X=52.74 $Y=122.53
Ri177	|I3/avC8#3	|I3/avC8#5	    0.4205	$mt1
+ $X=52.16 $Y=122.285
Ri179	|I3/avC8#3	|I3/avC8#8	    0.6222	$mt1
+ $X=52.16 $Y=122.785
Ri181	|I3/avC8#4	|I3/avC8#5	   15.0000	$mt1
+ $X=52.16 $Y=121.89
Ri182	|I3/avC8#7	|I3/avC8#8	    5.0000	$mt1
+ $X=52.16 $Y=123.4725
Ri183	|I1/D_nmos1v_avC_5	|I1/D_nmos1v_avC_5#2	   10.4667	$mt1
+ $X=56.8 $Y=156.02
Ri184	|I1/D_nmos1v_avC_5#2	|I1/D_nmos1v_avC_5#3	    1.4021	$mt1
+ $X=55.375 $Y=156.02
Ri185	|I1/D_nmos1v_avC_5#3	|I1/D_nmos1v_avC_5#4	    0.6027	$mt1
+ $X=54.3 $Y=156.5
Ri186	|I1/D_nmos1v_avC_5#4	|I1/D_nmos1v_avC_5#6	    1.6402	$mt1
+ $X=53.615 $Y=156.98
Ri188	|I1/D_nmos1v_avC_5#3	|I1/D_nmos1v_avC_5#9	    0.4939	$mt1
+ $X=54.3 $Y=155.72
Ri190	|I1/D_nmos1v_avC_5#4	|I1/D_nmos1v_avC_5#12	    1.7802	$mt1
+ $X=55.09 $Y=156.98
Ri192	|I1/D_nmos1v_avC_5#5	|I1/D_nmos1v_avC_5#6	    5.0000	$mt1
+ $X=52.93 $Y=158.1325
Ri193	|I1/D_nmos1v_avC_5#8	|I1/D_nmos1v_avC_5#9	   15.0000	$mt1
+ $X=54.3 $Y=155.27
Ri194	|I1/D_nmos1v_avC_5#11	|I1/D_nmos1v_avC_5#12	    5.0000	$mt1
+ $X=55.88 $Y=158.1325
Ri195	|I2/D_nmos1v_avC_3	|I2/D_nmos1v_avC_3#2	   10.4667	$mt1
+ $X=56.81 $Y=140.36
Ri196	|I2/D_nmos1v_avC_3#2	|I2/D_nmos1v_avC_3#4	    1.2021	$mt1
+ $X=55.565 $Y=140.36
Ri198	|I2/D_nmos1v_avC_3#4	|I2/D_nmos1v_avC_3#6	    1.4838	$mt1
+ $X=54.67 $Y=139.33
Ri199	|I2/D_nmos1v_avC_3#6	|I2/D_nmos1v_avC_3#8	    1.2252	$mt1
+ $X=54.065 $Y=138.41
Ri201	|I2/D_nmos1v_avC_3#6	|I2/D_nmos1v_avC_3#11	    1.2719	$mt1
+ $X=55.31 $Y=138.41
Ri203	|I2/D_nmos1v_avC_3#3	|I2/D_nmos1v_avC_3#4	    5.0000	$mt1
+ $X=54.67 $Y=140.6825
Ri204	|I2/D_nmos1v_avC_3#7	|I2/D_nmos1v_avC_3#8	   15.0000	$mt1
+ $X=53.46 $Y=137.72
Ri205	|I2/D_nmos1v_avC_3#10	|I2/D_nmos1v_avC_3#11	   15.0000	$mt1
+ $X=55.95 $Y=137.72
Ri207	|I3/avC6#2	|I3/avC6#4	    1.8694	$mt1
+ $X=57.47 $Y=118.4445
Ri208	|I3/avC6#4	|I3/avC6#5	   15.0000	$mt1
+ $X=57.47 $Y=119.78
Ri209	|I3/avC6	|I3/avC6#2	   15.0000	$mt1
+ $X=57.97 $Y=117.37
Ri210	|I4/|I3/D_nmos1v_avC_5	|I4/|I3/D_nmos1v_avC_5#2	   10.4667
+ $mt1	$X=57.72 $Y=80.67
Ri211	|I4/|I3/D_nmos1v_avC_5#2	|I4/|I3/D_nmos1v_avC_5#3
+     1.4021	$mt1	$X=56.295 $Y=80.67
Ri212	|I4/|I3/D_nmos1v_avC_5#3	|I4/|I3/D_nmos1v_avC_5#4
+     0.6027	$mt1	$X=55.22 $Y=81.15
Ri213	|I4/|I3/D_nmos1v_avC_5#4	|I4/|I3/D_nmos1v_avC_5#6
+     1.6402	$mt1	$X=54.535 $Y=81.63
Ri215	|I4/|I3/D_nmos1v_avC_5#3	|I4/|I3/D_nmos1v_avC_5#9
+     0.4939	$mt1	$X=55.22 $Y=80.37
Ri217	|I4/|I3/D_nmos1v_avC_5#4	|I4/|I3/D_nmos1v_avC_5#12
+     1.7802	$mt1	$X=56.01 $Y=81.63
Ri219	|I4/|I3/D_nmos1v_avC_5#5	|I4/|I3/D_nmos1v_avC_5#6
+     5.0000	$mt1	$X=53.85 $Y=82.7825
Ri220	|I4/|I3/D_nmos1v_avC_5#8	|I4/|I3/D_nmos1v_avC_5#9
+    15.0000	$mt1	$X=55.22 $Y=79.92
Ri221	|I4/|I3/D_nmos1v_avC_5#11	|I4/|I3/D_nmos1v_avC_5#12
+     5.0000	$mt1	$X=56.8 $Y=82.7825
Ri222	|I4/|I1/avC9	|I4/|I1/avC9#2	   10.9514	$mt1
+ $X=58.18 $Y=92.135
Ri223	|I4/|I1/avC9#2	|I4/|I1/avC9#3	    0.7421	$mt1
+ $X=57.13 $Y=92.64
Ri224	|I4/|I1/avC9#3	|I4/|I1/avC9#5	    0.4205	$mt1
+ $X=56.55 $Y=92.395
Ri226	|I4/|I1/avC9#3	|I4/|I1/avC9#8	    0.6222	$mt1
+ $X=56.55 $Y=92.895
Ri228	|I4/|I1/avC9#4	|I4/|I1/avC9#5	   15.0000	$mt1	$X=56.55 $Y=92
Ri229	|I4/|I1/avC9#7	|I4/|I1/avC9#8	    5.0000	$mt1
+ $X=56.55 $Y=93.5825
Ri230	|I4/|I1/avC8	|I4/|I1/avC8#2	   13.4361	$mt1
+ $X=56.975 $Y=96.83
Ri231	|I4/|I1/avC8#2	|I4/|I1/avC8#3	    0.7421	$mt1
+ $X=53.97 $Y=95.4
Ri232	|I4/|I1/avC8#3	|I4/|I1/avC8#5	    0.4205	$mt1
+ $X=53.39 $Y=95.155
Ri234	|I4/|I1/avC8#3	|I4/|I1/avC8#8	    0.6222	$mt1
+ $X=53.39 $Y=95.655
Ri236	|I4/|I1/avC8#4	|I4/|I1/avC8#5	   15.0000	$mt1
+ $X=53.39 $Y=94.76
Ri237	|I4/|I1/avC8#7	|I4/|I1/avC8#8	    5.0000	$mt1
+ $X=53.39 $Y=96.3425
Ri239	|I4/|I1/avC6#2	|I4/|I1/avC6#4	    1.8694	$mt1
+ $X=58.7 $Y=91.3145
Ri240	|I4/|I1/avC6#4	|I4/|I1/avC6#5	   15.0000	$mt1
+ $X=58.7 $Y=92.65
Ri241	|I4/|I1/avC6	|I4/|I1/avC6#2	   15.0000	$mt1
+ $X=59.2 $Y=90.24
Ri243	|I3/avC10#2	|I3/avC10#4	    1.3900	$mt1
+ $X=59.5555 $Y=124.88
Ri244	|I3/avC10#4	|I3/avC10#5	    1.2422	$mt1
+ $X=58.76 $Y=123.94
Ri245	|I3/avC10#5	|I3/avC10#7	6.458E-02	$mt1
+ $X=58.36 $Y=122.565
Ri247	|I3/avC10#4	|I3/avC10#10	    1.1100	$mt1
+ $X=58.36 $Y=124.88
Ri249	|I3/avC10#5	|I3/avC10#13	5.812E-02	$mt1
+ $X=59.12 $Y=122.565
Ri251	|I3/avC10	|I3/avC10#2	    5.0000	$mt1
+ $X=59.98 $Y=125.8025
Ri252	|I3/avC10#6	|I3/avC10#7	    5.0000	$mt1
+ $X=57.96 $Y=122.5625
Ri253	|I3/avC10#9	|I3/avC10#10	    5.0000	$mt1
+ $X=57.96 $Y=125.8025
Ri254	|I3/avC10#12	|I3/avC10#13	    5.0000	$mt1
+ $X=59.48 $Y=122.5625
Ri256	|I3/avC7#2	|I3/avC7#4	    1.8694	$mt1
+ $X=59.49 $Y=118.4445
Ri257	|I3/avC7#4	|I3/avC7#5	   15.0000	$mt1
+ $X=59.49 $Y=119.78
Ri258	|I3/avC7	|I3/avC7#2	   15.0000	$mt1
+ $X=59.99 $Y=117.37
Ri260	|I4/|I1/avC10#2	|I4/|I1/avC10#4	    1.3900	$mt1
+ $X=60.7855 $Y=97.75
Ri261	|I4/|I1/avC10#4	|I4/|I1/avC10#5	    1.2422	$mt1
+ $X=59.99 $Y=96.81
Ri262	|I4/|I1/avC10#5	|I4/|I1/avC10#7	6.458E-02	$mt1
+ $X=59.59 $Y=95.435
Ri264	|I4/|I1/avC10#4	|I4/|I1/avC10#10	    1.1100	$mt1
+ $X=59.59 $Y=97.75
Ri266	|I4/|I1/avC10#5	|I4/|I1/avC10#13	5.812E-02	$mt1
+ $X=60.35 $Y=95.435
Ri268	|I4/|I1/avC10	|I4/|I1/avC10#2	    5.0000	$mt1
+ $X=61.21 $Y=98.6725
Ri269	|I4/|I1/avC10#6	|I4/|I1/avC10#7	    5.0000	$mt1
+ $X=59.19 $Y=95.4325
Ri270	|I4/|I1/avC10#9	|I4/|I1/avC10#10	    5.0000	$mt1
+ $X=59.19 $Y=98.6725
Ri271	|I4/|I1/avC10#12	|I4/|I1/avC10#13	    5.0000	$mt1
+ $X=60.71 $Y=95.4325
Ri273	|I4/|I1/avC7#2	|I4/|I1/avC7#4	    1.8694	$mt1
+ $X=60.72 $Y=91.3145
Ri274	|I4/|I1/avC7#4	|I4/|I1/avC7#5	   15.0000	$mt1
+ $X=60.72 $Y=92.65
Ri275	|I4/|I1/avC7	|I4/|I1/avC7#2	   15.0000	$mt1
+ $X=61.22 $Y=90.24
Ri276	|I4/avC10	|I4/avC10#2	   10.4067	$mt1
+ $X=63.905 $Y=76.62
Ri277	|I4/avC10#2	|I4/avC10#3	    4.4894	$mt1
+ $X=62.565 $Y=76.62
Ri278	|I4/avC10#3	|I4/avC10#4	    0.3867	$mt1
+ $X=60.52 $Y=80.67
Ri279	|I4/avC10#4	|I4/avC10#5	    0.7421	$mt1
+ $X=59.65 $Y=80.67
Ri280	|I4/avC10#5	|I4/avC10#7	    0.4205	$mt1
+ $X=59.07 $Y=80.425
Ri282	|I4/avC10#5	|I4/avC10#10	    0.6222	$mt1
+ $X=59.07 $Y=80.925
Ri284	|I4/avC10#6	|I4/avC10#7	   15.0000	$mt1
+ $X=59.07 $Y=80.03
Ri285	|I4/avC10#9	|I4/avC10#10	    5.0000	$mt1
+ $X=59.07 $Y=81.6125
Ri286	|I4/avC9#12	|I4/avC9#13	   11.3133	$mt1
+ $X=64.585 $Y=73.66
Ri287	|I4/avC9#13	|I4/avC9#11	    4.0333	$mt1
+ $X=60.575 $Y=73.66
Ri289	|I4/|I4/avC7#2	|I4/|I4/avC7#4	    1.9874	$mt1
+ $X=65.52 $Y=76.688
Ri290	|I4/|I4/avC7#4	|I4/|I4/avC7#5	    5.0000	$mt1
+ $X=65.93 $Y=75.2925
Ri291	|I4/|I4/avC7	|I4/|I4/avC7#2	    5.0000	$mt1
+ $X=66.43 $Y=77.6425
Ri292	avC13	avC13#2	   13.0000	$mt1	$X=64.72 $Y=94.445
Ri293	avC13#2	avC13#3	    0.8369	$mt1
+ $X=61.84 $Y=94.445
Ri294	avC13#3	avC13#4	    0.8005	$mt1
+ $X=60.605 $Y=94.445
Ri295	avC13#4	avC13#6	    1.4933	$mt1
+ $X=59.345 $Y=94.445
Ri297	avC13#3	avC13#9	    0.6256	$mt1
+ $X=61.21 $Y=94.7225
Ri299	avC13#4	avC13#11	    0.6794	$mt1
+ $X=60 $Y=93.8875
Ri300	avC13#11	avC13#13	    0.9452	$mt1
+ $X=59.6 $Y=93.33
Ri302	avC13#11	avC13#16	    1.2252	$mt1
+ $X=60.61 $Y=93.33
Ri304	avC13#5	avC13#6	    5.0000	$mt1
+ $X=58.69 $Y=95.4325
Ri305	avC13#8	avC13#9	    5.0000	$mt1
+ $X=61.21 $Y=95.4325
Ri306	avC13#12	avC13#13	   15.0000	$mt1
+ $X=59.2 $Y=92.65
Ri307	avC13#15	avC13#16	   15.0000	$mt1
+ $X=61.22 $Y=92.65
Ri308	|I4/|I4/D_nmos1v_avC_3	|I4/|I4/D_nmos1v_avC_3#2	   10.4667
+ $mt1	$X=68.57 $Y=74.97
Ri309	|I4/|I4/D_nmos1v_avC_3#2	|I4/|I4/D_nmos1v_avC_3#4
+     1.2021	$mt1	$X=67.325 $Y=74.97
Ri311	|I4/|I4/D_nmos1v_avC_3#4	|I4/|I4/D_nmos1v_avC_3#6
+     1.4838	$mt1	$X=66.43 $Y=73.94
Ri312	|I4/|I4/D_nmos1v_avC_3#6	|I4/|I4/D_nmos1v_avC_3#8
+     1.2252	$mt1	$X=65.825 $Y=73.02
Ri314	|I4/|I4/D_nmos1v_avC_3#6	|I4/|I4/D_nmos1v_avC_3#11
+     1.2719	$mt1	$X=67.07 $Y=73.02
Ri316	|I4/|I4/D_nmos1v_avC_3#3	|I4/|I4/D_nmos1v_avC_3#4
+     5.0000	$mt1	$X=66.43 $Y=75.2925
Ri317	|I4/|I4/D_nmos1v_avC_3#7	|I4/|I4/D_nmos1v_avC_3#8
+    15.0000	$mt1	$X=65.22 $Y=72.33
Ri318	|I4/|I4/D_nmos1v_avC_3#10	|I4/|I4/D_nmos1v_avC_3#11
+    15.0000	$mt1	$X=67.71 $Y=72.33
Ri319	avC12	avC12#2	   19.2200	$mt1	$X=66.805 $Y=156.02
Ri320	avC12#2	avC12#3	    0.3867	$mt1
+ $X=59.6 $Y=156.02
Ri321	avC12#3	avC12#4	    0.7421	$mt1
+ $X=58.73 $Y=156.02
Ri322	avC12#4	avC12#6	    0.4205	$mt1
+ $X=58.15 $Y=155.775
Ri324	avC12#4	avC12#9	    0.6222	$mt1
+ $X=58.15 $Y=156.275
Ri326	avC12#5	avC12#6	   15.0000	$mt1
+ $X=58.15 $Y=155.38
Ri327	avC12#8	avC12#9	    5.0000	$mt1
+ $X=58.15 $Y=156.9625
Ri328	S1#5	S1#4	   43.6067	$mt1	$X=48.645 $Y=112.44
Ri329	avC11	avC11#2	   19.3733	$mt1	$X=66.83 $Y=140.36
Ri330	avC11#2	avC11#3	    0.3200	$mt1
+ $X=59.56 $Y=140.36
Ri331	avC11#3	avC11#4	    0.7421	$mt1
+ $X=58.74 $Y=140.36
Ri332	avC11#4	avC11#6	    0.4205	$mt1
+ $X=58.16 $Y=140.115
Ri334	avC11#4	avC11#9	    0.6222	$mt1
+ $X=58.16 $Y=140.615
Ri336	avC11#5	avC11#6	   15.0000	$mt1
+ $X=58.16 $Y=139.72
Ri337	avC11#8	avC11#9	    5.0000	$mt1
+ $X=58.16 $Y=141.3025
Ri338	avC10	avC10#2	   18.4200	$mt1	$X=67.555 $Y=121.575
Ri339	avC10#2	avC10#3	    0.8369	$mt1
+ $X=60.61 $Y=121.575
Ri340	avC10#3	avC10#4	    0.8005	$mt1
+ $X=59.375 $Y=121.575
Ri341	avC10#4	avC10#6	    1.4933	$mt1
+ $X=58.115 $Y=121.575
Ri343	avC10#3	avC10#9	    0.6256	$mt1
+ $X=59.98 $Y=121.8525
Ri345	avC10#4	avC10#11	    0.6794	$mt1
+ $X=58.77 $Y=121.0175
Ri346	avC10#11	avC10#13	    0.9452	$mt1
+ $X=58.37 $Y=120.46
Ri348	avC10#11	avC10#16	    1.2252	$mt1
+ $X=59.38 $Y=120.46
Ri350	avC10#5	avC10#6	    5.0000	$mt1
+ $X=57.46 $Y=122.5625
Ri351	avC10#8	avC10#9	    5.0000	$mt1
+ $X=59.98 $Y=122.5625
Ri352	avC10#12	avC10#13	   15.0000	$mt1
+ $X=57.97 $Y=119.78
Ri353	avC10#15	avC10#16	   15.0000	$mt1
+ $X=59.99 $Y=119.78
Ri354	S0#5	S0#4	   24.5067	$mt1	$X=66.51 $Y=65.89
Ri355	S0#8	S0#9	    5.9600	$mt1	$X=99.87 $Y=117.62
Ri356	S0#11	S0#12	   15.4483	$mt1	$X=100.57 $Y=82.61
Ri357	S0#12	S0#13	    9.6139	$mt1	$X=92.635 $Y=89.44
Ri358	S0#13	S0#6	   20.2380	$mt1	$X=81.97 $Y=89.44
Ri359	S0#12	S0#10	   10.7436	$mt1	$X=99.87 $Y=97.5
Ri360	avC10#19	avC10#20	   21.2933	$mt1
+ $X=93.87 $Y=122.73
Ri361	avC10#20	avC10#18	    7.6127	$mt1
+ $X=84.705 $Y=122.73
Ri362	S1#7	S1#8	   21.3467	$mt1	$X=93.91 $Y=112.44
Ri363	S1#8	S1#6	    6.9400	$mt1	$X=80.195 $Y=112.44
Ri364	avC13#19	avC13#20	   43.0327	$mt1
+ $X=102.125 $Y=73.5
Ri365	avC13#20	avC13#21	   13.7427	$mt1
+ $X=82.92 $Y=106.085
Ri366	avC13#21	avC13#18	    5.3733	$mt1
+ $X=72.29 $Y=94.445
Ri367	avC13#23	avC13#24	   14.3067	$mt1
+ $X=108.22 $Y=73.5
Ri368	avC13#24	avC13#22	    1.1133	$mt1
+ $X=104.155 $Y=73.5
Ri369	avC11#12	avC11#13	   14.3067	$mt1
+ $X=108.22 $Y=133.16
Ri370	avC11#13	avC11#14	   17.1327	$mt1
+ $X=103.875 $Y=133.16
Ri371	avC11#14	avC11#11	    7.4527	$mt1
+ $X=84.66 $Y=139.375
Ri372	S0#15	S0#16	   18.3868	$mt1	$X=109.665 $Y=151.32
Ri373	S0#16	S0#17	    1.9005	$mt1	$X=106.42 $Y=142.27
Ri374	S0#17	S0#7	    5.0514	$mt1	$X=102.43 $Y=142.27
Ri375	S0#16	S0#18	    1.7539	$mt1	$X=109.17 $Y=142.27
Ri376	S0#18	S0#19	   10.4667	$mt1	$X=110.84 $Y=142.27
Ri377	S0#20	S0#21	   18.3868	$mt1	$X=109.665 $Y=91.66
Ri378	S0#21	S0#22	    1.9005	$mt1	$X=106.42 $Y=82.61
Ri379	S0#22	S0#14	    1.0600	$mt1	$X=104.195 $Y=82.61
Ri380	S0#21	S0#23	    1.7539	$mt1	$X=109.17 $Y=82.61
Ri381	S0#23	S0#24	   10.4667	$mt1	$X=110.84 $Y=82.61
Ri382	avC12#12	avC12#13	   14.3333	$mt1
+ $X=108.24 $Y=151.95
Ri383	avC12#13	avC12#14	   15.7027	$mt1
+ $X=104.385 $Y=151.95
Ri384	avC12#14	avC12#11	    6.8533	$mt1
+ $X=80.26 $Y=156.02
Ri385	avC10#22	avC10#23	   14.3333	$mt1
+ $X=108.24 $Y=92.29
Ri386	avC10#23	avC10#21	   21.2847	$mt1
+ $X=104.22 $Y=92.29
Ri387	|I0/|I0/avC7	|I0/|I0/avC7#2	   11.4714	$mt1
+ $X=113.92 $Y=141.425
Ri388	|I0/|I0/avC7#2	|I0/|I0/avC7#3	    0.7421	$mt1
+ $X=112.77 $Y=142.27
Ri389	|I0/|I0/avC7#3	|I0/|I0/avC7#5	    0.4205	$mt1
+ $X=112.19 $Y=142.025
Ri391	|I0/|I0/avC7#3	|I0/|I0/avC7#8	    0.6222	$mt1
+ $X=112.19 $Y=142.525
Ri393	|I0/|I0/avC7#4	|I0/|I0/avC7#5	   15.0000	$mt1
+ $X=112.19 $Y=141.63
Ri394	|I0/|I0/avC7#7	|I0/|I0/avC7#8	    5.0000	$mt1
+ $X=112.19 $Y=143.2125
Ri395	|I0/|I1/avC7	|I0/|I1/avC7#2	   11.4714	$mt1
+ $X=113.92 $Y=81.765
Ri396	|I0/|I1/avC7#2	|I0/|I1/avC7#3	    0.7421	$mt1
+ $X=112.77 $Y=82.61
Ri397	|I0/|I1/avC7#3	|I0/|I1/avC7#5	    0.4205	$mt1
+ $X=112.19 $Y=82.365
Ri399	|I0/|I1/avC7#3	|I0/|I1/avC7#8	    0.6222	$mt1
+ $X=112.19 $Y=82.865
Ri401	|I0/|I1/avC7#4	|I0/|I1/avC7#5	   15.0000	$mt1
+ $X=112.19 $Y=81.97
Ri402	|I0/|I1/avC7#7	|I0/|I1/avC7#8	    5.0000	$mt1
+ $X=112.19 $Y=83.5525
Ri403	|I0/|I0/avC7#11	|I0/|I0/avC7#12	   10.5000	$mt1
+ $X=114.845 $Y=133.79
Ri404	|I0/|I0/avC7#12	|I0/|I0/avC7#10	    4.2980	$mt1
+ $X=114.195 $Y=133.79
Ri405	|I0/|I1/avC7#11	|I0/|I1/avC7#12	   10.5000	$mt1
+ $X=114.845 $Y=74.13
Ri406	|I0/|I1/avC7#12	|I0/|I1/avC7#10	    4.2980	$mt1
+ $X=114.195 $Y=74.13
Ri407	avC11#16	avC11#17	   10.5000	$mt1
+ $X=114.845 $Y=133.16
Ri408	avC11#17	avC11#15	    1.4000	$mt1
+ $X=113.42 $Y=133.16
Ri409	avC13#26	avC13#27	   10.5000	$mt1
+ $X=114.845 $Y=73.5
Ri410	avC13#27	avC13#25	    1.4000	$mt1
+ $X=113.42 $Y=73.5
Ri411	avC12#16	avC12#17	   10.5000	$mt1
+ $X=114.845 $Y=151.95
Ri412	avC12#17	avC12#15	    1.4200	$mt1
+ $X=113.405 $Y=151.95
Ri413	S0#33	S0#34	   10.5000	$mt1	$X=114.845 $Y=151.32
Ri414	S0#34	S0#31	    1.4200	$mt1	$X=113.405 $Y=151.32
Ri415	avC10#25	avC10#26	   10.5000	$mt1
+ $X=114.845 $Y=92.29
Ri416	avC10#26	avC10#24	    1.4200	$mt1
+ $X=113.405 $Y=92.29
Ri417	S0#35	S0#36	   10.5000	$mt1	$X=114.845 $Y=91.66
Ri418	S0#36	S0#32	    1.4200	$mt1	$X=113.405 $Y=91.66
Ri420	|I0/|I0/|I0/avC6#2	|I0/|I0/|I0/avC6#4	    1.4494	$mt1
+ $X=116.4905 $Y=149.92
Ri421	|I0/|I0/|I0/avC6#4	|I0/|I0/|I0/avC6#5	   15.0000	$mt1
+ $X=116.34 $Y=150.91
Ri422	|I0/|I0/|I0/avC6	|I0/|I0/|I0/avC6#2	   15.0000	$mt1
+ $X=116.84 $Y=149.13
Ri424	|I0/|I0/|I1/avC6#2	|I0/|I0/|I1/avC6#4	    1.4494	$mt1
+ $X=116.4905 $Y=131.76
Ri425	|I0/|I0/|I1/avC6#4	|I0/|I0/|I1/avC6#5	   15.0000	$mt1
+ $X=116.34 $Y=132.75
Ri426	|I0/|I0/|I1/avC6	|I0/|I0/|I1/avC6#2	   15.0000	$mt1
+ $X=116.84 $Y=130.97
Ri428	|I0/|I1/|I0/avC6#2	|I0/|I1/|I0/avC6#4	    1.4494	$mt1
+ $X=116.4905 $Y=90.26
Ri429	|I0/|I1/|I0/avC6#4	|I0/|I1/|I0/avC6#5	   15.0000	$mt1
+ $X=116.34 $Y=91.25
Ri430	|I0/|I1/|I0/avC6	|I0/|I1/|I0/avC6#2	   15.0000	$mt1
+ $X=116.84 $Y=89.47
Ri432	|I0/|I1/|I1/avC6#2	|I0/|I1/|I1/avC6#4	    1.4494	$mt1
+ $X=116.4905 $Y=72.1
Ri433	|I0/|I1/|I1/avC6#4	|I0/|I1/|I1/avC6#5	   15.0000	$mt1
+ $X=116.34 $Y=73.09
Ri434	|I0/|I1/|I1/avC6	|I0/|I1/|I1/avC6#2	   15.0000	$mt1
+ $X=116.84 $Y=71.31
Ri435	|I0/|I0/|I0/D_nmos1v_avC_5	|I0/|I0/|I0/D_nmos1v_avC_5#2
+    10.4667	$mt1	$X=119.34 $Y=151.66
Ri436	|I0/|I0/|I0/D_nmos1v_avC_5#2	|I0/|I0/|I0/D_nmos1v_avC_5#3
+     1.4021	$mt1	$X=117.915 $Y=151.66
Ri437	|I0/|I0/|I0/D_nmos1v_avC_5#3	|I0/|I0/|I0/D_nmos1v_avC_5#4
+     0.6027	$mt1	$X=116.84 $Y=152.14
Ri438	|I0/|I0/|I0/D_nmos1v_avC_5#4	|I0/|I0/|I0/D_nmos1v_avC_5#6
+     1.6402	$mt1	$X=116.155 $Y=152.62
Ri440	|I0/|I0/|I0/D_nmos1v_avC_5#3	|I0/|I0/|I0/D_nmos1v_avC_5#9
+     0.4939	$mt1	$X=116.84 $Y=151.36
Ri442	|I0/|I0/|I0/D_nmos1v_avC_5#4	|I0/|I0/|I0/D_nmos1v_avC_5#12
+     1.7802	$mt1	$X=117.63 $Y=152.62
Ri444	|I0/|I0/|I0/D_nmos1v_avC_5#5	|I0/|I0/|I0/D_nmos1v_avC_5#6
+     5.0000	$mt1	$X=115.47 $Y=153.7725
Ri445	|I0/|I0/|I0/D_nmos1v_avC_5#8	|I0/|I0/|I0/D_nmos1v_avC_5#9
+    15.0000	$mt1	$X=116.84 $Y=150.91
Ri446	|I0/|I0/|I0/D_nmos1v_avC_5#11	|I0/|I0/|I0/D_nmos1v_avC_5#12
+     5.0000	$mt1	$X=118.42 $Y=153.7725
Ri447	|I0/|I0/|I1/D_nmos1v_avC_5	|I0/|I0/|I1/D_nmos1v_avC_5#2
+    10.4667	$mt1	$X=119.34 $Y=133.5
Ri448	|I0/|I0/|I1/D_nmos1v_avC_5#2	|I0/|I0/|I1/D_nmos1v_avC_5#3
+     1.4021	$mt1	$X=117.915 $Y=133.5
Ri449	|I0/|I0/|I1/D_nmos1v_avC_5#3	|I0/|I0/|I1/D_nmos1v_avC_5#4
+     0.6027	$mt1	$X=116.84 $Y=133.98
Ri450	|I0/|I0/|I1/D_nmos1v_avC_5#4	|I0/|I0/|I1/D_nmos1v_avC_5#6
+     1.6402	$mt1	$X=116.155 $Y=134.46
Ri452	|I0/|I0/|I1/D_nmos1v_avC_5#3	|I0/|I0/|I1/D_nmos1v_avC_5#9
+     0.4939	$mt1	$X=116.84 $Y=133.2
Ri454	|I0/|I0/|I1/D_nmos1v_avC_5#4	|I0/|I0/|I1/D_nmos1v_avC_5#12
+     1.7802	$mt1	$X=117.63 $Y=134.46
Ri456	|I0/|I0/|I1/D_nmos1v_avC_5#5	|I0/|I0/|I1/D_nmos1v_avC_5#6
+     5.0000	$mt1	$X=115.47 $Y=135.6125
Ri457	|I0/|I0/|I1/D_nmos1v_avC_5#8	|I0/|I0/|I1/D_nmos1v_avC_5#9
+    15.0000	$mt1	$X=116.84 $Y=132.75
Ri458	|I0/|I0/|I1/D_nmos1v_avC_5#11	|I0/|I0/|I1/D_nmos1v_avC_5#12
+     5.0000	$mt1	$X=118.42 $Y=135.6125
Ri459	|I0/|I1/|I0/D_nmos1v_avC_5	|I0/|I1/|I0/D_nmos1v_avC_5#2
+    10.4667	$mt1	$X=119.34 $Y=92
Ri460	|I0/|I1/|I0/D_nmos1v_avC_5#2	|I0/|I1/|I0/D_nmos1v_avC_5#3
+     1.4021	$mt1	$X=117.915 $Y=92
Ri461	|I0/|I1/|I0/D_nmos1v_avC_5#3	|I0/|I1/|I0/D_nmos1v_avC_5#4
+     0.6027	$mt1	$X=116.84 $Y=92.48
Ri462	|I0/|I1/|I0/D_nmos1v_avC_5#4	|I0/|I1/|I0/D_nmos1v_avC_5#6
+     1.6402	$mt1	$X=116.155 $Y=92.96
Ri464	|I0/|I1/|I0/D_nmos1v_avC_5#3	|I0/|I1/|I0/D_nmos1v_avC_5#9
+     0.4939	$mt1	$X=116.84 $Y=91.7
Ri466	|I0/|I1/|I0/D_nmos1v_avC_5#4	|I0/|I1/|I0/D_nmos1v_avC_5#12
+     1.7802	$mt1	$X=117.63 $Y=92.96
Ri468	|I0/|I1/|I0/D_nmos1v_avC_5#5	|I0/|I1/|I0/D_nmos1v_avC_5#6
+     5.0000	$mt1	$X=115.47 $Y=94.1125
Ri469	|I0/|I1/|I0/D_nmos1v_avC_5#8	|I0/|I1/|I0/D_nmos1v_avC_5#9
+    15.0000	$mt1	$X=116.84 $Y=91.25
Ri470	|I0/|I1/|I0/D_nmos1v_avC_5#11	|I0/|I1/|I0/D_nmos1v_avC_5#12
+     5.0000	$mt1	$X=118.42 $Y=94.1125
Ri471	|I0/|I1/|I1/D_nmos1v_avC_5	|I0/|I1/|I1/D_nmos1v_avC_5#2
+    10.4667	$mt1	$X=119.34 $Y=73.84
Ri472	|I0/|I1/|I1/D_nmos1v_avC_5#2	|I0/|I1/|I1/D_nmos1v_avC_5#3
+     1.4021	$mt1	$X=117.915 $Y=73.84
Ri473	|I0/|I1/|I1/D_nmos1v_avC_5#3	|I0/|I1/|I1/D_nmos1v_avC_5#4
+     0.6027	$mt1	$X=116.84 $Y=74.32
Ri474	|I0/|I1/|I1/D_nmos1v_avC_5#4	|I0/|I1/|I1/D_nmos1v_avC_5#6
+     1.6402	$mt1	$X=116.155 $Y=74.8
Ri476	|I0/|I1/|I1/D_nmos1v_avC_5#3	|I0/|I1/|I1/D_nmos1v_avC_5#9
+     0.4939	$mt1	$X=116.84 $Y=73.54
Ri478	|I0/|I1/|I1/D_nmos1v_avC_5#4	|I0/|I1/|I1/D_nmos1v_avC_5#12
+     1.7802	$mt1	$X=117.63 $Y=74.8
Ri480	|I0/|I1/|I1/D_nmos1v_avC_5#5	|I0/|I1/|I1/D_nmos1v_avC_5#6
+     5.0000	$mt1	$X=115.47 $Y=75.9525
Ri481	|I0/|I1/|I1/D_nmos1v_avC_5#8	|I0/|I1/|I1/D_nmos1v_avC_5#9
+    15.0000	$mt1	$X=116.84 $Y=73.09
Ri482	|I0/|I1/|I1/D_nmos1v_avC_5#11	|I0/|I1/|I1/D_nmos1v_avC_5#12
+     5.0000	$mt1	$X=118.42 $Y=75.9525
Ri483	|I0/|I0/avC8	|I0/|I0/avC8#2	   13.1847	$mt1
+ $X=122.88 $Y=149.47
Ri484	|I0/|I0/avC8#2	|I0/|I0/avC8#3	    0.3867	$mt1
+ $X=122.14 $Y=151.66
Ri485	|I0/|I0/avC8#3	|I0/|I0/avC8#4	    0.7421	$mt1
+ $X=121.27 $Y=151.66
Ri486	|I0/|I0/avC8#4	|I0/|I0/avC8#6	    0.4205	$mt1
+ $X=120.69 $Y=151.415
Ri488	|I0/|I0/avC8#4	|I0/|I0/avC8#9	    0.6222	$mt1
+ $X=120.69 $Y=151.915
Ri490	|I0/|I0/avC8#5	|I0/|I0/avC8#6	   15.0000	$mt1
+ $X=120.69 $Y=151.02
Ri491	|I0/|I0/avC8#8	|I0/|I0/avC8#9	    5.0000	$mt1
+ $X=120.69 $Y=152.6025
Ri492	|I0/|I1/avC8	|I0/|I1/avC8#2	   13.1847	$mt1
+ $X=122.88 $Y=89.81
Ri493	|I0/|I1/avC8#2	|I0/|I1/avC8#3	    0.3867	$mt1
+ $X=122.14 $Y=92
Ri494	|I0/|I1/avC8#3	|I0/|I1/avC8#4	    0.7421	$mt1
+ $X=121.27 $Y=92
Ri495	|I0/|I1/avC8#4	|I0/|I1/avC8#6	    0.4205	$mt1
+ $X=120.69 $Y=91.755
Ri497	|I0/|I1/avC8#4	|I0/|I1/avC8#9	    0.6222	$mt1
+ $X=120.69 $Y=92.255
Ri499	|I0/|I1/avC8#5	|I0/|I1/avC8#6	   15.0000	$mt1
+ $X=120.69 $Y=91.36
Ri500	|I0/|I1/avC8#8	|I0/|I1/avC8#9	    5.0000	$mt1
+ $X=120.69 $Y=92.9425
Ri501	|I0/|I0/avC8#12	|I0/|I0/avC8#13	   10.4067	$mt1
+ $X=123.855 $Y=144.23
Ri502	|I0/|I0/avC8#13	|I0/|I0/avC8#11	    1.8447	$mt1
+ $X=123.215 $Y=144.23
Ri503	|I0/|I1/avC8#12	|I0/|I1/avC8#13	   10.4067	$mt1
+ $X=123.855 $Y=84.57
Ri504	|I0/|I1/avC8#13	|I0/|I1/avC8#11	    1.8447	$mt1
+ $X=123.215 $Y=84.57
Ri505	|I0/|I0/avC9	|I0/|I0/avC9#2	   11.3133	$mt1
+ $X=124.535 $Y=141.27
Ri506	|I0/|I0/avC9#2	|I0/|I0/avC9#3	    5.8561	$mt1
+ $X=123.24 $Y=141.27
Ri507	|I0/|I0/avC9#3	|I0/|I0/avC9#4	    0.3867	$mt1
+ $X=122.14 $Y=133.5
Ri508	|I0/|I0/avC9#4	|I0/|I0/avC9#5	    0.7421	$mt1
+ $X=121.27 $Y=133.5
Ri509	|I0/|I0/avC9#5	|I0/|I0/avC9#7	    0.4205	$mt1
+ $X=120.69 $Y=133.255
Ri511	|I0/|I0/avC9#5	|I0/|I0/avC9#10	    0.6222	$mt1
+ $X=120.69 $Y=133.755
Ri513	|I0/|I0/avC9#6	|I0/|I0/avC9#7	   15.0000	$mt1
+ $X=120.69 $Y=132.86
Ri514	|I0/|I0/avC9#9	|I0/|I0/avC9#10	    5.0000	$mt1
+ $X=120.69 $Y=134.4425
Ri515	|I0/|I1/avC9	|I0/|I1/avC9#2	   11.3133	$mt1
+ $X=124.535 $Y=81.61
Ri516	|I0/|I1/avC9#2	|I0/|I1/avC9#3	    5.8561	$mt1
+ $X=123.24 $Y=81.61
Ri517	|I0/|I1/avC9#3	|I0/|I1/avC9#4	    0.3867	$mt1
+ $X=122.14 $Y=73.84
Ri518	|I0/|I1/avC9#4	|I0/|I1/avC9#5	    0.7421	$mt1
+ $X=121.27 $Y=73.84
Ri519	|I0/|I1/avC9#5	|I0/|I1/avC9#7	    0.4205	$mt1
+ $X=120.69 $Y=73.595
Ri521	|I0/|I1/avC9#5	|I0/|I1/avC9#10	    0.6222	$mt1
+ $X=120.69 $Y=74.095
Ri523	|I0/|I1/avC9#6	|I0/|I1/avC9#7	   15.0000	$mt1
+ $X=120.69 $Y=73.2
Ri524	|I0/|I1/avC9#9	|I0/|I1/avC9#10	    5.0000	$mt1
+ $X=120.69 $Y=74.7825
Ri526	|I0/|I0/|I3/avC7#2	|I0/|I0/|I3/avC7#4	    1.9874	$mt1
+ $X=125.47 $Y=144.298
Ri527	|I0/|I0/|I3/avC7#4	|I0/|I0/|I3/avC7#5	    5.0000	$mt1
+ $X=125.88 $Y=142.9025
Ri528	|I0/|I0/|I3/avC7	|I0/|I0/|I3/avC7#2	    5.0000	$mt1
+ $X=126.38 $Y=145.2525
Ri530	|I0/|I1/|I3/avC7#2	|I0/|I1/|I3/avC7#4	    1.9874	$mt1
+ $X=125.47 $Y=84.638
Ri531	|I0/|I1/|I3/avC7#4	|I0/|I1/|I3/avC7#5	    5.0000	$mt1
+ $X=125.88 $Y=83.2425
Ri532	|I0/|I1/|I3/avC7	|I0/|I1/|I3/avC7#2	    5.0000	$mt1
+ $X=126.38 $Y=85.5925
Ri533	|I0/|I0/|I3/D_nmos1v_avC_3	|I0/|I0/|I3/D_nmos1v_avC_3#2
+    10.4667	$mt1	$X=128.52 $Y=142.58
Ri534	|I0/|I0/|I3/D_nmos1v_avC_3#2	|I0/|I0/|I3/D_nmos1v_avC_3#4
+     1.2021	$mt1	$X=127.275 $Y=142.58
Ri536	|I0/|I0/|I3/D_nmos1v_avC_3#4	|I0/|I0/|I3/D_nmos1v_avC_3#6
+     1.4838	$mt1	$X=126.38 $Y=141.55
Ri537	|I0/|I0/|I3/D_nmos1v_avC_3#6	|I0/|I0/|I3/D_nmos1v_avC_3#8
+     1.2252	$mt1	$X=125.775 $Y=140.63
Ri539	|I0/|I0/|I3/D_nmos1v_avC_3#6	|I0/|I0/|I3/D_nmos1v_avC_3#11
+     1.2719	$mt1	$X=127.02 $Y=140.63
Ri541	|I0/|I0/|I3/D_nmos1v_avC_3#3	|I0/|I0/|I3/D_nmos1v_avC_3#4
+     5.0000	$mt1	$X=126.38 $Y=142.9025
Ri542	|I0/|I0/|I3/D_nmos1v_avC_3#7	|I0/|I0/|I3/D_nmos1v_avC_3#8
+    15.0000	$mt1	$X=125.17 $Y=139.94
Ri543	|I0/|I0/|I3/D_nmos1v_avC_3#10	|I0/|I0/|I3/D_nmos1v_avC_3#11
+    15.0000	$mt1	$X=127.66 $Y=139.94
Ri544	|I0/|I1/|I3/D_nmos1v_avC_3	|I0/|I1/|I3/D_nmos1v_avC_3#2
+    10.4667	$mt1	$X=128.52 $Y=82.92
Ri545	|I0/|I1/|I3/D_nmos1v_avC_3#2	|I0/|I1/|I3/D_nmos1v_avC_3#4
+     1.2021	$mt1	$X=127.275 $Y=82.92
Ri547	|I0/|I1/|I3/D_nmos1v_avC_3#4	|I0/|I1/|I3/D_nmos1v_avC_3#6
+     1.4838	$mt1	$X=126.38 $Y=81.89
Ri548	|I0/|I1/|I3/D_nmos1v_avC_3#6	|I0/|I1/|I3/D_nmos1v_avC_3#8
+     1.2252	$mt1	$X=125.775 $Y=80.97
Ri550	|I0/|I1/|I3/D_nmos1v_avC_3#6	|I0/|I1/|I3/D_nmos1v_avC_3#11
+     1.2719	$mt1	$X=127.02 $Y=80.97
Ri552	|I0/|I1/|I3/D_nmos1v_avC_3#3	|I0/|I1/|I3/D_nmos1v_avC_3#4
+     5.0000	$mt1	$X=126.38 $Y=83.2425
Ri553	|I0/|I1/|I3/D_nmos1v_avC_3#7	|I0/|I1/|I3/D_nmos1v_avC_3#8
+    15.0000	$mt1	$X=125.17 $Y=80.28
Ri554	|I0/|I1/|I3/D_nmos1v_avC_3#10	|I0/|I1/|I3/D_nmos1v_avC_3#11
+    15.0000	$mt1	$X=127.66 $Y=80.28
Ri555	Cout#1	Cout#2	   61.7261	$mt1	$X=106.18 $Y=55.345
Ri556	Cout#2	Cout#3	    3.1733	$mt1	$X=73.94 $Y=74.97
Ri557	Cout#3	Cout#4	    0.3200	$mt1	$X=71.32 $Y=74.97
Ri558	Cout#4	Cout#5	    0.7421	$mt1	$X=70.5 $Y=74.97
Ri559	Cout#5	Cout#7	    0.4205	$mt1	$X=69.92 $Y=74.725
Ri561	Cout#5	Cout#10	    0.6222	$mt1	$X=69.92 $Y=75.225
Ri563	Cout#6	Cout#7	   15.0000	$mt1	$X=69.92 $Y=74.33
Ri564	Cout#9	Cout#10	    5.0000	$mt1	$X=69.92 $Y=75.9125
Ri565	|I0/avC10	|I0/avC10#2	   21.3914	$mt1
+ $X=136.46 $Y=135.39
Ri566	|I0/avC10#2	|I0/avC10#3	    1.4600	$mt1
+ $X=132.605 $Y=142.58
Ri567	|I0/avC10#3	|I0/avC10#4	    0.3200	$mt1
+ $X=131.27 $Y=142.58
Ri568	|I0/avC10#4	|I0/avC10#5	    0.7421	$mt1
+ $X=130.45 $Y=142.58
Ri569	|I0/avC10#5	|I0/avC10#7	    0.4205	$mt1
+ $X=129.87 $Y=142.335
Ri571	|I0/avC10#5	|I0/avC10#10	    0.6222	$mt1
+ $X=129.87 $Y=142.835
Ri573	|I0/avC10#6	|I0/avC10#7	   15.0000	$mt1
+ $X=129.87 $Y=141.94
Ri574	|I0/avC10#9	|I0/avC10#10	    5.0000	$mt1
+ $X=129.87 $Y=143.5225
Ri575	|I0/avC11	|I0/avC11#2	   14.3067	$mt1
+ $X=144.51 $Y=103.33
Ri576	|I0/avC11#2	|I0/avC11#3	   18.5894	$mt1
+ $X=139.01 $Y=103.33
Ri577	|I0/avC11#3	|I0/avC11#4	    1.4600	$mt1
+ $X=132.605 $Y=82.92
Ri578	|I0/avC11#4	|I0/avC11#5	    0.3200	$mt1
+ $X=131.27 $Y=82.92
Ri579	|I0/avC11#5	|I0/avC11#6	    0.7421	$mt1
+ $X=130.45 $Y=82.92
Ri580	|I0/avC11#6	|I0/avC11#8	    0.4205	$mt1
+ $X=129.87 $Y=82.675
Ri582	|I0/avC11#6	|I0/avC11#11	    0.6222	$mt1
+ $X=129.87 $Y=83.175
Ri584	|I0/avC11#7	|I0/avC11#8	   15.0000	$mt1
+ $X=129.87 $Y=82.28
Ri585	|I0/avC11#10	|I0/avC11#11	    5.0000	$mt1
+ $X=129.87 $Y=83.8625
Ri586	S1#10	S1#11	   18.3868	$mt1	$X=145.955 $Y=121.49
Ri587	S1#11	S1#12	    1.9005	$mt1	$X=142.71 $Y=112.44
Ri588	S1#12	S1#9	   14.1733	$mt1	$X=130.65 $Y=112.44
Ri589	S1#11	S1#13	    1.7539	$mt1	$X=145.46 $Y=112.44
Ri590	S1#13	S1#14	   10.4667	$mt1	$X=147.13 $Y=112.44
Ri591	|I0/avC10#13	|I0/avC10#14	   14.3333	$mt1
+ $X=144.53 $Y=122.12
Ri592	|I0/avC10#14	|I0/avC10#12	    6.1847	$mt1
+ $X=138.87 $Y=122.12
Ri593	|I0/|I2/avC7	|I0/|I2/avC7#2	   11.4714	$mt1
+ $X=150.21 $Y=111.595
Ri594	|I0/|I2/avC7#2	|I0/|I2/avC7#3	    0.7421	$mt1
+ $X=149.06 $Y=112.44
Ri595	|I0/|I2/avC7#3	|I0/|I2/avC7#5	    0.4205	$mt1
+ $X=148.48 $Y=112.195
Ri597	|I0/|I2/avC7#3	|I0/|I2/avC7#8	    0.6222	$mt1
+ $X=148.48 $Y=112.695
Ri599	|I0/|I2/avC7#4	|I0/|I2/avC7#5	   15.0000	$mt1
+ $X=148.48 $Y=111.8
Ri600	|I0/|I2/avC7#7	|I0/|I2/avC7#8	    5.0000	$mt1
+ $X=148.48 $Y=113.3825
Ri601	|I0/|I2/avC7#11	|I0/|I2/avC7#12	   10.5000	$mt1
+ $X=151.135 $Y=103.96
Ri602	|I0/|I2/avC7#12	|I0/|I2/avC7#10	    4.2980	$mt1
+ $X=150.485 $Y=103.96
Ri603	|I0/avC11#14	|I0/avC11#15	   10.5000	$mt1
+ $X=151.135 $Y=103.33
Ri604	|I0/avC11#15	|I0/avC11#13	    1.4000	$mt1
+ $X=149.71 $Y=103.33
Ri605	|I0/avC10#16	|I0/avC10#17	   10.5000	$mt1
+ $X=151.135 $Y=122.12
Ri606	|I0/avC10#17	|I0/avC10#15	    1.4200	$mt1
+ $X=149.695 $Y=122.12
Ri607	S1#19	S1#20	   10.5000	$mt1	$X=151.135 $Y=121.49
Ri608	S1#20	S1#18	    1.4200	$mt1	$X=149.695 $Y=121.49
Ri610	|I0/|I2/|I0/avC6#2	|I0/|I2/|I0/avC6#4	    1.4494	$mt1
+ $X=152.7805 $Y=120.09
Ri611	|I0/|I2/|I0/avC6#4	|I0/|I2/|I0/avC6#5	   15.0000	$mt1
+ $X=152.63 $Y=121.08
Ri612	|I0/|I2/|I0/avC6	|I0/|I2/|I0/avC6#2	   15.0000	$mt1
+ $X=153.13 $Y=119.3
Ri614	|I0/|I2/|I1/avC6#2	|I0/|I2/|I1/avC6#4	    1.4494	$mt1
+ $X=152.7805 $Y=101.93
Ri615	|I0/|I2/|I1/avC6#4	|I0/|I2/|I1/avC6#5	   15.0000	$mt1
+ $X=152.63 $Y=102.92
Ri616	|I0/|I2/|I1/avC6	|I0/|I2/|I1/avC6#2	   15.0000	$mt1
+ $X=153.13 $Y=101.14
Ri617	|I0/|I2/|I0/D_nmos1v_avC_5	|I0/|I2/|I0/D_nmos1v_avC_5#2
+    10.4667	$mt1	$X=155.63 $Y=121.83
Ri618	|I0/|I2/|I0/D_nmos1v_avC_5#2	|I0/|I2/|I0/D_nmos1v_avC_5#3
+     1.4021	$mt1	$X=154.205 $Y=121.83
Ri619	|I0/|I2/|I0/D_nmos1v_avC_5#3	|I0/|I2/|I0/D_nmos1v_avC_5#4
+     0.6027	$mt1	$X=153.13 $Y=122.31
Ri620	|I0/|I2/|I0/D_nmos1v_avC_5#4	|I0/|I2/|I0/D_nmos1v_avC_5#6
+     1.6402	$mt1	$X=152.445 $Y=122.79
Ri622	|I0/|I2/|I0/D_nmos1v_avC_5#3	|I0/|I2/|I0/D_nmos1v_avC_5#9
+     0.4939	$mt1	$X=153.13 $Y=121.53
Ri624	|I0/|I2/|I0/D_nmos1v_avC_5#4	|I0/|I2/|I0/D_nmos1v_avC_5#12
+     1.7802	$mt1	$X=153.92 $Y=122.79
Ri626	|I0/|I2/|I0/D_nmos1v_avC_5#5	|I0/|I2/|I0/D_nmos1v_avC_5#6
+     5.0000	$mt1	$X=151.76 $Y=123.9425
Ri627	|I0/|I2/|I0/D_nmos1v_avC_5#8	|I0/|I2/|I0/D_nmos1v_avC_5#9
+    15.0000	$mt1	$X=153.13 $Y=121.08
Ri628	|I0/|I2/|I0/D_nmos1v_avC_5#11	|I0/|I2/|I0/D_nmos1v_avC_5#12
+     5.0000	$mt1	$X=154.71 $Y=123.9425
Ri629	|I0/|I2/|I1/D_nmos1v_avC_5	|I0/|I2/|I1/D_nmos1v_avC_5#2
+    10.4667	$mt1	$X=155.63 $Y=103.67
Ri630	|I0/|I2/|I1/D_nmos1v_avC_5#2	|I0/|I2/|I1/D_nmos1v_avC_5#3
+     1.4021	$mt1	$X=154.205 $Y=103.67
Ri631	|I0/|I2/|I1/D_nmos1v_avC_5#3	|I0/|I2/|I1/D_nmos1v_avC_5#4
+     0.6027	$mt1	$X=153.13 $Y=104.15
Ri632	|I0/|I2/|I1/D_nmos1v_avC_5#4	|I0/|I2/|I1/D_nmos1v_avC_5#6
+     1.6402	$mt1	$X=152.445 $Y=104.63
Ri634	|I0/|I2/|I1/D_nmos1v_avC_5#3	|I0/|I2/|I1/D_nmos1v_avC_5#9
+     0.4939	$mt1	$X=153.13 $Y=103.37
Ri636	|I0/|I2/|I1/D_nmos1v_avC_5#4	|I0/|I2/|I1/D_nmos1v_avC_5#12
+     1.7802	$mt1	$X=153.92 $Y=104.63
Ri638	|I0/|I2/|I1/D_nmos1v_avC_5#5	|I0/|I2/|I1/D_nmos1v_avC_5#6
+     5.0000	$mt1	$X=151.76 $Y=105.7825
Ri639	|I0/|I2/|I1/D_nmos1v_avC_5#8	|I0/|I2/|I1/D_nmos1v_avC_5#9
+    15.0000	$mt1	$X=153.13 $Y=102.92
Ri640	|I0/|I2/|I1/D_nmos1v_avC_5#11	|I0/|I2/|I1/D_nmos1v_avC_5#12
+     5.0000	$mt1	$X=154.71 $Y=105.7825
Ri641	|I0/|I2/avC8	|I0/|I2/avC8#2	   13.1847	$mt1
+ $X=159.17 $Y=119.64
Ri642	|I0/|I2/avC8#2	|I0/|I2/avC8#3	    0.3867	$mt1
+ $X=158.43 $Y=121.83
Ri643	|I0/|I2/avC8#3	|I0/|I2/avC8#4	    0.7421	$mt1
+ $X=157.56 $Y=121.83
Ri644	|I0/|I2/avC8#4	|I0/|I2/avC8#6	    0.4205	$mt1
+ $X=156.98 $Y=121.585
Ri646	|I0/|I2/avC8#4	|I0/|I2/avC8#9	    0.6222	$mt1
+ $X=156.98 $Y=122.085
Ri648	|I0/|I2/avC8#5	|I0/|I2/avC8#6	   15.0000	$mt1
+ $X=156.98 $Y=121.19
Ri649	|I0/|I2/avC8#8	|I0/|I2/avC8#9	    5.0000	$mt1
+ $X=156.98 $Y=122.7725
Ri650	|I0/|I2/avC8#12	|I0/|I2/avC8#13	   10.4067	$mt1
+ $X=160.145 $Y=114.4
Ri651	|I0/|I2/avC8#13	|I0/|I2/avC8#11	    1.8447	$mt1
+ $X=159.505 $Y=114.4
Ri652	|I0/|I2/avC9	|I0/|I2/avC9#2	   11.3133	$mt1
+ $X=160.825 $Y=111.44
Ri653	|I0/|I2/avC9#2	|I0/|I2/avC9#3	    5.8561	$mt1
+ $X=159.53 $Y=111.44
Ri654	|I0/|I2/avC9#3	|I0/|I2/avC9#4	    0.3867	$mt1
+ $X=158.43 $Y=103.67
Ri655	|I0/|I2/avC9#4	|I0/|I2/avC9#5	    0.7421	$mt1
+ $X=157.56 $Y=103.67
Ri656	|I0/|I2/avC9#5	|I0/|I2/avC9#7	    0.4205	$mt1
+ $X=156.98 $Y=103.425
Ri658	|I0/|I2/avC9#5	|I0/|I2/avC9#10	    0.6222	$mt1
+ $X=156.98 $Y=103.925
Ri660	|I0/|I2/avC9#6	|I0/|I2/avC9#7	   15.0000	$mt1
+ $X=156.98 $Y=103.03
Ri661	|I0/|I2/avC9#9	|I0/|I2/avC9#10	    5.0000	$mt1
+ $X=156.98 $Y=104.6125
Ri663	|I0/|I2/|I3/avC7#2	|I0/|I2/|I3/avC7#4	    1.9874	$mt1
+ $X=161.76 $Y=114.468
Ri664	|I0/|I2/|I3/avC7#4	|I0/|I2/|I3/avC7#5	    5.0000	$mt1
+ $X=162.17 $Y=113.0725
Ri665	|I0/|I2/|I3/avC7	|I0/|I2/|I3/avC7#2	    5.0000	$mt1
+ $X=162.67 $Y=115.4225
Ri666	|I0/|I2/|I3/D_nmos1v_avC_3	|I0/|I2/|I3/D_nmos1v_avC_3#2
+    10.4667	$mt1	$X=164.81 $Y=112.75
Ri667	|I0/|I2/|I3/D_nmos1v_avC_3#2	|I0/|I2/|I3/D_nmos1v_avC_3#4
+     1.2021	$mt1	$X=163.565 $Y=112.75
Ri669	|I0/|I2/|I3/D_nmos1v_avC_3#4	|I0/|I2/|I3/D_nmos1v_avC_3#6
+     1.4838	$mt1	$X=162.67 $Y=111.72
Ri670	|I0/|I2/|I3/D_nmos1v_avC_3#6	|I0/|I2/|I3/D_nmos1v_avC_3#8
+     1.2252	$mt1	$X=162.065 $Y=110.8
Ri672	|I0/|I2/|I3/D_nmos1v_avC_3#6	|I0/|I2/|I3/D_nmos1v_avC_3#11
+     1.2719	$mt1	$X=163.31 $Y=110.8
Ri674	|I0/|I2/|I3/D_nmos1v_avC_3#3	|I0/|I2/|I3/D_nmos1v_avC_3#4
+     5.0000	$mt1	$X=162.67 $Y=113.0725
Ri675	|I0/|I2/|I3/D_nmos1v_avC_3#7	|I0/|I2/|I3/D_nmos1v_avC_3#8
+    15.0000	$mt1	$X=161.46 $Y=110.11
Ri676	|I0/|I2/|I3/D_nmos1v_avC_3#10	|I0/|I2/|I3/D_nmos1v_avC_3#11
+    15.0000	$mt1	$X=163.95 $Y=110.11
Ri677	OUT	OUT#1	   22.9467	$mt1	$X=202.3605 $Y=112.75
Ri678	OUT#1	OUT#2	   10.1067	$mt1	$X=177.57 $Y=112.75
Ri679	OUT#2	OUT#3	    1.4600	$mt1	$X=168.895 $Y=112.75
Ri680	OUT#3	OUT#4	    0.3200	$mt1	$X=167.56 $Y=112.75
Ri681	OUT#4	OUT#5	    0.7421	$mt1	$X=166.74 $Y=112.75
Ri682	OUT#5	OUT#7	    0.4205	$mt1	$X=166.16 $Y=112.505
Ri684	OUT#5	OUT#10	    0.6222	$mt1	$X=166.16 $Y=113.005
Ri686	OUT#6	OUT#7	   15.0000	$mt1	$X=166.16 $Y=112.11
Ri687	OUT#9	OUT#10	    5.0000	$mt1	$X=166.16 $Y=113.6925
Ri688	Cout	Cout#12	   55.6867	$mt1	$X=177.8055 $Y=55.345
Ri691	VDD#2	VDD#5	    0.2491	$mt1	$X=165.89 $Y=114.7925
Ri692	VDD#5	VDD#6	    2.2183	$mt1	$X=165.89 $Y=115.6575
Ri693	VDD#6	VDD#7	    0.2439	$mt1	$X=163.82 $Y=116.5225
Ri694	VDD#7	VDD#8	    0.2169	$mt1	$X=163.82 $Y=116.895
Ri695	VDD#8	VDD#9	   11.7352	$mt1	$X=163.82 $Y=121.8
Ri696	VDD#9	VDD#10	    0.6105	$mt1	$X=155.1725 $Y=126.54
Ri697	VDD#10	VDD#11	    0.4539	$mt1	$X=154.71 $Y=126.175
Ri698	VDD#11	VDD#13	    0.6532	$mt1	$X=154.71 $Y=125.3225
Ri701	VDD#13	VDD#16	    1.8000	$mt1	$X=153.003 $Y=124.835
Ri702	VDD#16	VDD#18	    0.1667	$mt1	$X=151.51 $Y=124.835
Ri703	VDD#2	VDD#19	    0.5674	$mt1	$X=165.66 $Y=114.355
Ri704	VDD#19	VDD#20	    5.0000	$mt1	$X=165.66 $Y=113.6925
Ri705	VDD#6	VDD#21	    0.4272	$mt1	$X=163.495 $Y=116.315
Ri706	VDD#21	VDD#23	    1.8320	$mt1	$X=163.17 $Y=115.14
Ri707	VDD#23	VDD#24	    0.1667	$mt1	$X=162.42 $Y=113.965
Ri708	VDD#24	VDD#22	   15.1667	$mt1	$X=162.42 $Y=113.965
Ri709	VDD#8	VDD#25	   12.2786	$mt1	$X=159.265 $Y=117.06
Ri710	VDD#25	VDD#27	    0.6532	$mt1	$X=154.71 $Y=107.1625
Ri713	VDD#27	VDD#30	    0.5982	$mt1	$X=154.21 $Y=106.445
Ri714	VDD#30	VDD#31	    5.0000	$mt1	$X=154.21 $Y=105.7825
Ri715	VDD#9	VDD#32	    0.3873	$mt1	$X=155.635 $Y=126.855
Ri716	VDD#32	VDD#33	    0.1903	$mt1	$X=155.635 $Y=127.315
Ri717	VDD#33	VDD#34	   44.2053	$mt1	$X=137.49 $Y=127.46
Ri718	VDD#34	VDD#35	    0.3888	$mt1	$X=119.345 $Y=97.025
Ri719	VDD#35	VDD#36	    0.6075	$mt1	$X=118.8825 $Y=96.71
Ri720	VDD#36	VDD#37	    0.4539	$mt1	$X=118.42 $Y=96.345
Ri721	VDD#37	VDD#39	    0.6532	$mt1	$X=118.42 $Y=95.4925
Ri724	VDD#39	VDD#42	    0.5982	$mt1	$X=117.92 $Y=94.775
Ri725	VDD#42	VDD#43	    5.0000	$mt1	$X=117.92 $Y=94.1125
Ri726	VDD#10	VDD#44	   12.1950	$mt1	$X=151.46 $Y=126.54
Ri727	VDD#44	VDD#46	    0.2491	$mt1	$X=148.21 $Y=114.4825
Ri730	VDD#46	VDD#49	    0.5674	$mt1	$X=147.98 $Y=114.045
Ri731	VDD#49	VDD#50	    5.0000	$mt1	$X=147.98 $Y=113.3825
Ri732	VDD#13	VDD#51	    0.5982	$mt1	$X=154.21 $Y=124.605
Ri733	VDD#51	VDD#52	    5.0000	$mt1	$X=154.21 $Y=123.9425
Ri734	VDD#13	VDD#53	    1.8014	$mt1	$X=155.74 $Y=124.835
Ri735	VDD#53	VDD#55	    0.2491	$mt1	$X=156.71 $Y=123.8725
Ri738	VDD#55	VDD#58	    0.5674	$mt1	$X=156.48 $Y=123.435
Ri739	VDD#58	VDD#59	    5.0000	$mt1	$X=156.48 $Y=122.7725
Ri740	VDD#16	VDD#60	    0.1667	$mt1	$X=151.51 $Y=124.835
Ri741	VDD#60	VDD#62	    0.5906	$mt1	$X=151.26 $Y=124.605
Ri743	VDD#21	VDD#65	    0.3303	$mt1	$X=162.95 $Y=116.315
Ri744	VDD#65	VDD#66	    0.1667	$mt1	$X=162.42 $Y=116.315
Ri745	VDD#66	VDD#67	    0.1667	$mt1	$X=162.42 $Y=116.315
Ri746	VDD#67	VDD#68	    0.5982	$mt1	$X=162.17 $Y=116.085
Ri747	VDD#68	VDD#69	    5.0000	$mt1	$X=162.17 $Y=115.4225
Ri748	VDD#27	VDD#70	    1.8000	$mt1	$X=153.003 $Y=106.675
Ri749	VDD#70	VDD#72	    0.1667	$mt1	$X=151.51 $Y=106.675
Ri750	VDD#70	VDD#73	    0.1667	$mt1	$X=151.51 $Y=106.675
Ri751	VDD#73	VDD#75	    0.5906	$mt1	$X=151.26 $Y=106.445
Ri753	VDD#27	VDD#77	    1.8014	$mt1	$X=155.74 $Y=106.675
Ri754	VDD#77	VDD#79	    0.2491	$mt1	$X=156.71 $Y=105.7125
Ri757	VDD#79	VDD#82	    0.5674	$mt1	$X=156.48 $Y=105.275
Ri758	VDD#82	VDD#83	    5.0000	$mt1	$X=156.48 $Y=104.6125
Ri759	VDD#33	VDD#84	   34.1852	$mt1	$X=155.635 $Y=142.95
Ri760	VDD#84	VDD#85	   11.5416	$mt1	$X=127.31 $Y=158.44
Ri761	VDD#85	VDD#86	    0.3888	$mt1	$X=119.345 $Y=156.685
Ri762	VDD#86	VDD#87	    0.6075	$mt1	$X=118.8825 $Y=156.37
Ri763	VDD#87	VDD#88	    0.4539	$mt1	$X=118.42 $Y=156.005
Ri764	VDD#88	VDD#90	    0.6532	$mt1	$X=118.42 $Y=155.1525
Ri767	VDD#90	VDD#93	    0.5982	$mt1	$X=117.92 $Y=154.435
Ri768	VDD#93	VDD#94	    5.0000	$mt1	$X=117.92 $Y=153.7725
Ri769	VDD#35	VDD#95	   11.7322	$mt1	$X=123.4375 $Y=96.71
Ri770	VDD#95	VDD#96	    0.2169	$mt1	$X=127.53 $Y=87.065
Ri771	VDD#96	VDD#97	    0.2455	$mt1	$X=127.53 $Y=86.6925
Ri772	VDD#97	VDD#98	    0.4241	$mt1	$X=127.205 $Y=86.485
Ri773	VDD#98	VDD#100	    1.8320	$mt1	$X=126.88 $Y=85.31
Ri774	VDD#100	VDD#101	    0.1667	$mt1
+ $X=126.13 $Y=84.135
Ri775	VDD#101	VDD#99	   15.1667	$mt1	$X=126.13 $Y=84.135
Ri776	VDD#36	VDD#102	   12.1950	$mt1	$X=115.17 $Y=96.71
Ri777	VDD#102	VDD#104	    0.2491	$mt1
+ $X=111.92 $Y=84.6525
Ri780	VDD#104	VDD#107	    0.5674	$mt1
+ $X=111.69 $Y=84.215
Ri781	VDD#107	VDD#108	    5.0000	$mt1
+ $X=111.69 $Y=83.5525
Ri782	VDD#39	VDD#109	    1.8000	$mt1	$X=116.713 $Y=95.005
Ri783	VDD#109	VDD#111	    0.1667	$mt1
+ $X=115.22 $Y=95.005
Ri784	VDD#109	VDD#112	    0.1667	$mt1
+ $X=115.22 $Y=95.005
Ri785	VDD#112	VDD#114	    0.5906	$mt1
+ $X=114.97 $Y=94.775
Ri787	VDD#39	VDD#116	    1.8014	$mt1	$X=119.45 $Y=95.005
Ri788	VDD#116	VDD#118	    0.2491	$mt1
+ $X=120.42 $Y=94.0425
Ri791	VDD#118	VDD#121	    0.5674	$mt1
+ $X=120.19 $Y=93.605
Ri792	VDD#121	VDD#122	    5.0000	$mt1
+ $X=120.19 $Y=92.9425
Ri793	VDD#84	VDD#123	    3.8606	$mt1	$X=135.275 $Y=161.36
Ri794	VDD#123	VDD#124	   28.5450	$mt1
+ $X=135.275 $Y=170.96
Ri795	VDD#124	VDD#125	   20.8672	$mt1
+ $X=90.105 $Y=177.64
Ri796	VDD#125	VDD#126	   21.8442	$mt1
+ $X=74.45 $Y=161.23
Ri797	VDD#126	VDD#127	   11.2072	$mt1
+ $X=74.45 $Y=136.41
Ri798	VDD#127	VDD#128	   25.5797	$mt1
+ $X=74.45 $Y=119.745
Ri799	VDD#128	VDD#129	    1.1888	$mt1
+ $X=55.02 $Y=108.035
Ri800	VDD#129	VDD#130	    7.9286	$mt1
+ $X=49.7125 $Y=107.12
Ri801	VDD#130	VDD#131	    0.3188	$mt1
+ $X=44.405 $Y=105.5175
Ri802	VDD#131	VDD#132	    3.7052	$mt1
+ $X=42.5525 $Y=105.255
Ri803	VDD#132	VDD#134	    0.2491	$mt1
+ $X=40.7 $Y=103.1325
Ri806	VDD#134	VDD#137	    0.5674	$mt1
+ $X=40.47 $Y=102.695
Ri807	VDD#137	VDD#138	    5.0000	$mt1
+ $X=40.47 $Y=102.0325
Ri808	VDD#86	VDD#139	   11.7322	$mt1	$X=123.4375 $Y=156.37
Ri809	VDD#139	VDD#140	    0.2169	$mt1
+ $X=127.53 $Y=146.725
Ri810	VDD#140	VDD#141	    0.2455	$mt1
+ $X=127.53 $Y=146.3525
Ri811	VDD#141	VDD#142	    0.4241	$mt1
+ $X=127.205 $Y=146.145
Ri812	VDD#142	VDD#144	    1.8320	$mt1
+ $X=126.88 $Y=144.97
Ri813	VDD#144	VDD#145	    0.1667	$mt1
+ $X=126.13 $Y=143.795
Ri814	VDD#145	VDD#143	   15.1667	$mt1
+ $X=126.13 $Y=143.795
Ri815	VDD#87	VDD#146	   12.1950	$mt1	$X=115.17 $Y=156.37
Ri816	VDD#146	VDD#148	    0.2491	$mt1
+ $X=111.92 $Y=144.3125
Ri819	VDD#148	VDD#151	    0.5674	$mt1
+ $X=111.69 $Y=143.875
Ri820	VDD#151	VDD#152	    5.0000	$mt1
+ $X=111.69 $Y=143.2125
Ri821	VDD#90	VDD#153	    1.8000	$mt1	$X=116.713 $Y=154.665
Ri822	VDD#153	VDD#155	    0.1667	$mt1
+ $X=115.22 $Y=154.665
Ri823	VDD#153	VDD#156	    0.1667	$mt1
+ $X=115.22 $Y=154.665
Ri824	VDD#156	VDD#158	    0.5906	$mt1
+ $X=114.97 $Y=154.435
Ri826	VDD#90	VDD#160	    1.8014	$mt1	$X=119.45 $Y=154.665
Ri827	VDD#160	VDD#162	    0.2491	$mt1
+ $X=120.42 $Y=153.7025
Ri830	VDD#162	VDD#165	    0.5674	$mt1
+ $X=120.19 $Y=153.265
Ri831	VDD#165	VDD#166	    5.0000	$mt1
+ $X=120.19 $Y=152.6025
Ri832	VDD#95	VDD#167	   12.2786	$mt1	$X=122.975 $Y=87.23
Ri833	VDD#167	VDD#169	    0.6532	$mt1
+ $X=118.42 $Y=77.3325
Ri836	VDD#169	VDD#172	    0.5982	$mt1
+ $X=117.92 $Y=76.615
Ri837	VDD#172	VDD#173	    5.0000	$mt1
+ $X=117.92 $Y=75.9525
Ri838	VDD#97	VDD#174	    2.2152	$mt1	$X=128.565 $Y=86.485
Ri839	VDD#174	VDD#176	    0.2491	$mt1
+ $X=129.6 $Y=84.9625
Ri842	VDD#176	VDD#179	    0.5674	$mt1
+ $X=129.37 $Y=84.525
Ri843	VDD#179	VDD#180	    5.0000	$mt1
+ $X=129.37 $Y=83.8625
Ri844	VDD#98	VDD#182	    0.3303	$mt1	$X=126.66 $Y=86.485
Ri845	VDD#182	VDD#183	    0.1667	$mt1
+ $X=126.13 $Y=86.485
Ri846	VDD#183	VDD#184	    0.1667	$mt1
+ $X=126.13 $Y=86.485
Ri847	VDD#184	VDD#185	    0.5982	$mt1
+ $X=125.88 $Y=86.255
Ri848	VDD#185	VDD#186	    5.0000	$mt1
+ $X=125.88 $Y=85.5925
Ri849	VDD#124	VDD	   27.8807	$mt1	$X=105.76 $Y=198.605
Ri850	VDD#125	VDD#187	   24.1016	$mt1
+ $X=65.165 $Y=177.64
Ri851	VDD#187	VDD#189	    0.6532	$mt1
+ $X=55.88 $Y=159.5125
Ri854	VDD#189	VDD#192	    0.5982	$mt1
+ $X=55.38 $Y=158.795
Ri855	VDD#192	VDD#193	    5.0000	$mt1
+ $X=55.38 $Y=158.1325
Ri856	VDD#126	VDD#194	   12.6720	$mt1
+ $X=65.135 $Y=144.82
Ri857	VDD#194	VDD#195	    0.2455	$mt1
+ $X=55.82 $Y=144.1325
Ri858	VDD#195	VDD#196	    0.4241	$mt1
+ $X=55.495 $Y=143.925
Ri859	VDD#196	VDD#198	    1.8320	$mt1
+ $X=55.17 $Y=142.75
Ri860	VDD#198	VDD#199	    0.1667	$mt1
+ $X=54.42 $Y=141.575
Ri861	VDD#199	VDD#197	   15.1667	$mt1
+ $X=54.42 $Y=141.575
Ri862	VDD#127	VDD#200	   13.0220	$mt1
+ $X=65.0225 $Y=128
Ri863	VDD#200	VDD#201	    0.3188	$mt1
+ $X=55.595 $Y=126.9575
Ri864	VDD#201	VDD#202	    3.7052	$mt1
+ $X=53.7425 $Y=126.695
Ri865	VDD#202	VDD#204	    0.2491	$mt1
+ $X=51.89 $Y=124.5725
Ri868	VDD#204	VDD#207	    0.5674	$mt1
+ $X=51.66 $Y=124.135
Ri869	VDD#207	VDD#208	    5.0000	$mt1
+ $X=51.66 $Y=123.4725
Ri870	VDD#129	VDD#209	    1.1941	$mt1
+ $X=55.9225 $Y=107.12
Ri871	VDD#209	VDD#210	    4.6539	$mt1
+ $X=56.825 $Y=103.605
Ri872	VDD#210	VDD#211	    0.3188	$mt1
+ $X=56.825 $Y=99.8275
Ri873	VDD#211	VDD#212	    3.7052	$mt1
+ $X=54.9725 $Y=99.565
Ri874	VDD#212	VDD#214	    0.2491	$mt1
+ $X=53.12 $Y=97.4425
Ri877	VDD#214	VDD#217	    0.5674	$mt1
+ $X=52.89 $Y=97.005
Ri878	VDD#217	VDD#218	    5.0000	$mt1
+ $X=52.89 $Y=96.3425
Ri879	VDD#131	VDD#220	    1.2372	$mt1
+ $X=45.3075 $Y=105.255
Ri880	VDD#220	VDD#221	    0.1667	$mt1
+ $X=46.52 $Y=105.255
Ri881	VDD#220	VDD#223	    0.5906	$mt1
+ $X=46.27 $Y=105.025
Ri883	VDD#223	VDD#225	    1.5682	$mt1
+ $X=46.27 $Y=102.9725
Ri885	VDD#225	VDD#228	    0.2533	$mt1
+ $X=46.52 $Y=102.015
Ri886	VDD#228	VDD#229	    2.5280	$mt1
+ $X=45.035 $Y=102.015
Ri887	VDD#229	VDD#231	    0.2491	$mt1
+ $X=43.86 $Y=100.3725
Ri890	VDD#231	VDD#234	    0.5674	$mt1
+ $X=43.63 $Y=99.935
Ri891	VDD#234	VDD#235	    5.0000	$mt1
+ $X=43.63 $Y=99.2725
Ri892	VDD#139	VDD#236	   12.2786	$mt1
+ $X=122.975 $Y=146.89
Ri893	VDD#236	VDD#238	    0.6532	$mt1
+ $X=118.42 $Y=136.9925
Ri896	VDD#238	VDD#241	    0.5982	$mt1
+ $X=117.92 $Y=136.275
Ri897	VDD#241	VDD#242	    5.0000	$mt1
+ $X=117.92 $Y=135.6125
Ri898	VDD#141	VDD#243	    2.2152	$mt1
+ $X=128.565 $Y=146.145
Ri899	VDD#243	VDD#245	    0.2491	$mt1
+ $X=129.6 $Y=144.6225
Ri902	VDD#245	VDD#248	    0.5674	$mt1
+ $X=129.37 $Y=144.185
Ri903	VDD#248	VDD#249	    5.0000	$mt1
+ $X=129.37 $Y=143.5225
Ri904	VDD#142	VDD#251	    0.3303	$mt1
+ $X=126.66 $Y=146.145
Ri905	VDD#251	VDD#252	    0.1667	$mt1
+ $X=126.13 $Y=146.145
Ri906	VDD#252	VDD#253	    0.1667	$mt1
+ $X=126.13 $Y=146.145
Ri907	VDD#253	VDD#254	    0.5982	$mt1
+ $X=125.88 $Y=145.915
Ri908	VDD#254	VDD#255	    5.0000	$mt1
+ $X=125.88 $Y=145.2525
Ri909	VDD#169	VDD#256	    1.8000	$mt1
+ $X=116.713 $Y=76.845
Ri910	VDD#256	VDD#258	    0.1667	$mt1
+ $X=115.22 $Y=76.845
Ri911	VDD#256	VDD#259	    0.1667	$mt1
+ $X=115.22 $Y=76.845
Ri912	VDD#259	VDD#261	    0.5906	$mt1
+ $X=114.97 $Y=76.615
Ri914	VDD#169	VDD#263	    1.8014	$mt1
+ $X=119.45 $Y=76.845
Ri915	VDD#263	VDD#265	    0.2491	$mt1
+ $X=120.42 $Y=75.8825
Ri918	VDD#265	VDD#268	    0.5674	$mt1
+ $X=120.19 $Y=75.445
Ri919	VDD#268	VDD#269	    5.0000	$mt1
+ $X=120.19 $Y=74.7825
Ri920	VDD#189	VDD#270	    1.8000	$mt1
+ $X=54.173 $Y=159.025
Ri921	VDD#270	VDD#272	    0.1667	$mt1
+ $X=52.68 $Y=159.025
Ri922	VDD#270	VDD#273	    0.1667	$mt1
+ $X=52.68 $Y=159.025
Ri923	VDD#273	VDD#275	    0.5906	$mt1
+ $X=52.43 $Y=158.795
Ri925	VDD#189	VDD#277	    1.8014	$mt1
+ $X=56.91 $Y=159.025
Ri926	VDD#277	VDD#279	    0.2491	$mt1
+ $X=57.88 $Y=158.0625
Ri929	VDD#279	VDD#282	    0.5674	$mt1
+ $X=57.65 $Y=157.625
Ri930	VDD#282	VDD#283	    5.0000	$mt1
+ $X=57.65 $Y=156.9625
Ri931	VDD#195	VDD#284	    2.2152	$mt1
+ $X=56.855 $Y=143.925
Ri932	VDD#284	VDD#286	    0.2491	$mt1
+ $X=57.89 $Y=142.4025
Ri935	VDD#286	VDD#289	    0.5674	$mt1
+ $X=57.66 $Y=141.965
Ri936	VDD#289	VDD#290	    5.0000	$mt1
+ $X=57.66 $Y=141.3025
Ri937	VDD#196	VDD#292	    0.3303	$mt1
+ $X=54.95 $Y=143.925
Ri938	VDD#292	VDD#293	    0.1667	$mt1
+ $X=54.42 $Y=143.925
Ri939	VDD#293	VDD#294	    0.1667	$mt1
+ $X=54.42 $Y=143.925
Ri940	VDD#294	VDD#295	    0.5982	$mt1
+ $X=54.17 $Y=143.695
Ri941	VDD#295	VDD#296	    5.0000	$mt1
+ $X=54.17 $Y=143.0325
Ri942	VDD#201	VDD#298	    1.2372	$mt1
+ $X=56.4975 $Y=126.695
Ri943	VDD#298	VDD#299	    0.1667	$mt1
+ $X=57.71 $Y=126.695
Ri944	VDD#298	VDD#301	    0.5906	$mt1
+ $X=57.46 $Y=126.465
Ri946	VDD#301	VDD#303	    1.5682	$mt1
+ $X=57.46 $Y=124.4125
Ri948	VDD#303	VDD#306	    0.2533	$mt1
+ $X=57.71 $Y=123.455
Ri949	VDD#306	VDD#307	    2.5280	$mt1
+ $X=56.225 $Y=123.455
Ri950	VDD#307	VDD#309	    0.2491	$mt1
+ $X=55.05 $Y=121.8125
Ri953	VDD#309	VDD#312	    0.5674	$mt1
+ $X=54.82 $Y=121.375
Ri954	VDD#312	VDD#313	    5.0000	$mt1
+ $X=54.82 $Y=120.7125
Ri955	VDD#209	VDD#314	   21.2952	$mt1
+ $X=62.2025 $Y=107.12
Ri956	VDD#314	VDD#315	    4.6103	$mt1
+ $X=67.58 $Y=82.41
Ri957	VDD#315	VDD#316	    0.2455	$mt1
+ $X=67.58 $Y=78.7425
Ri958	VDD#316	VDD#317	    0.4241	$mt1
+ $X=67.255 $Y=78.535
Ri959	VDD#317	VDD#319	    1.8320	$mt1
+ $X=66.93 $Y=77.36
Ri960	VDD#319	VDD#320	    0.1667	$mt1
+ $X=66.18 $Y=76.185
Ri961	VDD#320	VDD#318	   15.1667	$mt1
+ $X=66.18 $Y=76.185
Ri962	VDD#211	VDD#322	    1.2372	$mt1
+ $X=57.7275 $Y=99.565
Ri963	VDD#322	VDD#323	    0.1667	$mt1
+ $X=58.94 $Y=99.565
Ri964	VDD#322	VDD#325	    0.5906	$mt1
+ $X=58.69 $Y=99.335
Ri966	VDD#325	VDD#327	    1.5682	$mt1
+ $X=58.69 $Y=97.2825
Ri968	VDD#327	VDD#330	    0.2533	$mt1
+ $X=58.94 $Y=96.325
Ri969	VDD#330	VDD#331	    2.5280	$mt1
+ $X=57.455 $Y=96.325
Ri970	VDD#331	VDD#333	    0.2491	$mt1
+ $X=56.28 $Y=94.6825
Ri973	VDD#333	VDD#336	    0.5674	$mt1
+ $X=56.05 $Y=94.245
Ri974	VDD#336	VDD#337	    5.0000	$mt1
+ $X=56.05 $Y=93.5825
Ri975	VDD#221	VDD#338	    0.1667	$mt1
+ $X=46.52 $Y=105.255
Ri976	VDD#338	VDD#340	    1.0133	$mt1
+ $X=47.548 $Y=105.255
Ri977	VDD#340	VDD#341	    0.1667	$mt1
+ $X=48.54 $Y=105.255
Ri978	VDD#341	VDD#342	    0.1667	$mt1
+ $X=48.54 $Y=105.255
Ri979	VDD#340	VDD#343	    0.5982	$mt1
+ $X=48.29 $Y=105.025
Ri980	VDD#343	VDD#344	    5.0000	$mt1
+ $X=48.29 $Y=104.3625
Ri981	VDD#238	VDD#345	    1.8000	$mt1
+ $X=116.713 $Y=136.505
Ri982	VDD#345	VDD#347	    0.1667	$mt1
+ $X=115.22 $Y=136.505
Ri983	VDD#345	VDD#348	    0.1667	$mt1
+ $X=115.22 $Y=136.505
Ri984	VDD#348	VDD#350	    0.5906	$mt1
+ $X=114.97 $Y=136.275
Ri986	VDD#238	VDD#352	    1.8014	$mt1
+ $X=119.45 $Y=136.505
Ri987	VDD#352	VDD#354	    0.2491	$mt1
+ $X=120.42 $Y=135.5425
Ri990	VDD#354	VDD#357	    0.5674	$mt1
+ $X=120.19 $Y=135.105
Ri991	VDD#357	VDD#358	    5.0000	$mt1
+ $X=120.19 $Y=134.4425
Ri992	VDD#299	VDD#359	    0.1667	$mt1
+ $X=57.71 $Y=126.695
Ri993	VDD#359	VDD#361	    1.0133	$mt1
+ $X=58.738 $Y=126.695
Ri994	VDD#361	VDD#362	    0.1667	$mt1
+ $X=59.73 $Y=126.695
Ri995	VDD#362	VDD#363	    0.1667	$mt1
+ $X=59.73 $Y=126.695
Ri996	VDD#361	VDD#364	    0.5982	$mt1
+ $X=59.48 $Y=126.465
Ri997	VDD#364	VDD#365	    5.0000	$mt1
+ $X=59.48 $Y=125.8025
Ri998	VDD#314	VDD#366	    7.1509	$mt1
+ $X=62.19 $Y=85.87
Ri999	VDD#366	VDD#367	    0.7806	$mt1
+ $X=56.8 $Y=85.26
Ri1000	VDD#367	VDD#369	    0.6532	$mt1
+ $X=56.8 $Y=84.1625
Ri1003	VDD#369	VDD#372	    0.5982	$mt1
+ $X=56.3 $Y=83.445
Ri1004	VDD#372	VDD#373	    5.0000	$mt1
+ $X=56.3 $Y=82.7825
Ri1005	VDD#316	VDD#374	    2.2152	$mt1
+ $X=68.615 $Y=78.535
Ri1006	VDD#374	VDD#376	    0.2491	$mt1
+ $X=69.65 $Y=77.0125
Ri1009	VDD#376	VDD#379	    0.5674	$mt1
+ $X=69.42 $Y=76.575
Ri1010	VDD#379	VDD#380	    5.0000	$mt1
+ $X=69.42 $Y=75.9125
Ri1011	VDD#317	VDD#382	    0.3303	$mt1
+ $X=66.71 $Y=78.535
Ri1012	VDD#382	VDD#383	    0.1667	$mt1
+ $X=66.18 $Y=78.535
Ri1013	VDD#383	VDD#384	    0.1667	$mt1
+ $X=66.18 $Y=78.535
Ri1014	VDD#384	VDD#385	    0.5982	$mt1
+ $X=65.93 $Y=78.305
Ri1015	VDD#385	VDD#386	    5.0000	$mt1
+ $X=65.93 $Y=77.6425
Ri1016	VDD#323	VDD#387	    0.1667	$mt1
+ $X=58.94 $Y=99.565
Ri1017	VDD#387	VDD#389	    1.0133	$mt1
+ $X=59.968 $Y=99.565
Ri1018	VDD#389	VDD#390	    0.1667	$mt1
+ $X=60.96 $Y=99.565
Ri1019	VDD#390	VDD#391	    0.1667	$mt1
+ $X=60.96 $Y=99.565
Ri1020	VDD#389	VDD#392	    0.5982	$mt1
+ $X=60.71 $Y=99.335
Ri1021	VDD#392	VDD#393	    5.0000	$mt1
+ $X=60.71 $Y=98.6725
Ri1022	VDD#342	VDD#394	    3.0561	$mt1
+ $X=49.12 $Y=105.255
Ri1023	VDD#394	VDD#396	    0.1667	$mt1
+ $X=48.54 $Y=102.015
Ri1024	VDD#396	VDD#395	   15.3333	$mt1
+ $X=48.54 $Y=102.015
Ri1025	VDD#363	VDD#397	    3.0561	$mt1
+ $X=60.31 $Y=126.695
Ri1026	VDD#397	VDD#399	    0.1667	$mt1
+ $X=59.73 $Y=123.455
Ri1027	VDD#399	VDD#398	   15.3333	$mt1
+ $X=59.73 $Y=123.455
Ri1028	VDD#366	VDD#400	    9.0550	$mt1
+ $X=50.59 $Y=85.87
Ri1029	VDD#400	VDD#402	    0.6532	$mt1
+ $X=44.38 $Y=84.1625
Ri1032	VDD#402	VDD#405	    0.5982	$mt1
+ $X=43.88 $Y=83.445
Ri1033	VDD#405	VDD#406	    5.0000	$mt1
+ $X=43.88 $Y=82.7825
Ri1034	VDD#369	VDD#407	    1.8000	$mt1
+ $X=55.093 $Y=83.675
Ri1035	VDD#407	VDD#409	    0.1667	$mt1
+ $X=53.6 $Y=83.675
Ri1036	VDD#407	VDD#410	    0.1667	$mt1
+ $X=53.6 $Y=83.675
Ri1037	VDD#410	VDD#412	    0.5906	$mt1
+ $X=53.35 $Y=83.445
Ri1039	VDD#369	VDD#414	    1.8014	$mt1
+ $X=57.83 $Y=83.675
Ri1040	VDD#414	VDD#416	    0.2491	$mt1
+ $X=58.8 $Y=82.7125
Ri1043	VDD#416	VDD#419	    0.5674	$mt1
+ $X=58.57 $Y=82.275
[...]
C614	VDD#7	GND	2.543E-17	$X=163.8175 $Y=116.705
C615	|I0/|I2/|I3/D_nmos1v_avC_3#2	GND	8.651E-17
+ $X=164.1855 $Y=112.7465
C616	VDD#19	GND	6.826E-17	$X=165.657 $Y=113.774
C617	VDD#5	GND	1.399E-16	$X=165.887 $Y=115.5795
C618	OUT#4	GND	5.613E-17	$X=167.1475 $Y=112.747
C619	OUT#3	GND	9.142E-17	$X=168.225 $Y=112.7465
C620	OUT#2	GND	5.944E-16	$X=173.2295 $Y=112.743
C621	OUT#1	GND	1.699E-15	$X=189.9565 $Y=112.735
C622	B#4	GND	2.251E-15	$X=8.5675 $Y=112.643
C623	B#5	GND	1.220E-15	$X=8.5445 $Y=137.6245
C624	B#6	GND	8.106E-16	$X=8.7875 $Y=153.7265
C625	A#10	GND	1.361E-16	$X=38.99 $Y=102.852
C626	A#12	GND	3.558E-16	$X=36.357 $Y=101.885
C627	B#15	GND	1.534E-16	$X=39.77 $Y=97.1295
C628	B#17	GND	8.213E-16	$X=35.9925 $Y=88.298
C629	A#17	GND	5.720E-17	$X=40.7185 $Y=101.0925
C630	A#22	GND	1.964E-16	$X=41.2505 $Y=81.536
C631	|I4/|I2/avC6#2	GND	1.200E-16	$X=42.799 $Y=78.457
C632	B#26	GND	5.999E-17	$X=43.8785 $Y=98.3325
C633	B#29	GND	3.819E-16	$X=43.3435 $Y=79.2065
C634	|I4/|I2/D_nmos1v_avC_5#3	GND	1.105E-16
+ $X=43.367 $Y=80.667
C635	|I4/|I2/D_nmos1v_avC_5#4	GND	1.677E-16
+ $X=42.8 $Y=81.417
C636	|I4/|I2/D_nmos1v_avC_5#6	GND	1.599E-16
+ $X=41.4295 $Y=82.4195
C637	|I4/|I2/D_nmos1v_avC_5#9	GND	5.162E-17
+ $X=42.798 $Y=80.037
C638	|I4/|I2/D_nmos1v_avC_5#12	GND	1.544E-16
+ $X=44.38 $Y=82.4195
C639	|I4/|I0/avC9#3	GND	7.077E-17	$X=44.4485 $Y=98.327
C640	|I4/|I0/avC9#5	GND	5.190E-17	$X=44.128 $Y=97.7795
C641	|I4/|I0/avC9#8	GND	8.214E-17	$X=44.1285 $Y=99.172
C642	|I4/|I0/avC8#3	GND	6.874E-17	$X=41.2885 $Y=101.087
C643	|I4/|I0/avC8#5	GND	5.193E-17	$X=40.968 $Y=100.5395
C644	|I4/|I0/avC8#8	GND	8.101E-17	$X=40.9685 $Y=101.932
C645	|I4/|I0/avC6#2	GND	1.405E-16	$X=46.5295 $Y=96.7665
C646	|I4/|I2/D_nmos1v_avC_5#15	GND	5.999E-17
+ $X=46.3985 $Y=80.6725
C647	A#25	GND	6.012E-16	$X=45.616 $Y=102.182
C648	|I4/|I0/avC8#11	GND	4.371E-16	$X=47.933 $Y=99.7855
C649	|I4/|I0/avC10#2	GND	1.692E-16	$X=48.7895 $Y=104.114
C650	|I4/|I0/avC10#4	GND	1.608E-16	$X=47.57 $Y=102.997
C651	|I4/|I0/avC10#5	GND	1.824E-16	$X=47.5755 $Y=101.5595
C652	|I4/|I0/avC10#7	GND	1.229E-16	$X=47.0015 $Y=101.121
C653	|I4/|I0/avC10#10	GND	1.278E-16	$X=46.769 $Y=104.114
C654	|I4/|I0/avC10#13	GND	1.198E-16	$X=48.081 $Y=101.121
C655	|I4/|I0/avC7#2	GND	1.489E-16	$X=48.5495 $Y=96.7465
C656	|I4/|I0/avC9#11	GND	4.593E-16	$X=48.9435 $Y=97.3155
C657	B#32	GND	1.041E-15	$X=46.542 $Y=95.29
C658	A#28	GND	1.362E-16	$X=50.1795 $Y=124.2915
C659	B#35	GND	1.534E-16	$X=50.9595 $Y=118.569
C660	A#33	GND	5.720E-17	$X=51.9085 $Y=122.532
C661	|I4/avC8#4	GND	1.103E-16	$X=51.4095 $Y=97.162
C662	|I4/avC8#6	GND	4.410E-16	$X=50.5645 $Y=95.671
C663	|I4/avC8#8	GND	1.057E-16	$X=48.789 $Y=100.2395
C664	|I4/avC8#9	GND	1.425E-16	$X=47.5795 $Y=99.883
C665	|I4/avC8#11	GND	1.615E-16	$X=46.2695 $Y=100.8415
C666	|I4/avC8#16	GND	9.333E-17	$X=48.7885 $Y=101.0105
C667	|I4/avC8#18	GND	1.183E-16	$X=47.5795 $Y=99.265
C668	|I4/avC8#20	GND	8.359E-17	$X=46.7785 $Y=98.602
C669	|I4/avC8#23	GND	1.049E-16	$X=48.7985 $Y=98.602
C670	A#39	GND	3.678E-15	$X=10.158 $Y=165.491
C671	A#40	GND	1.493E-15	$X=10.11 $Y=141.1705
C672	A#41	GND	2.195E-15	$X=10.1255 $Y=120.177
C673	Cin#8	GND	1.534E-16	$X=52.1895 $Y=91.4395
C674	|I4/avC8#26	GND	5.720E-17	$X=53.1385 $Y=95.4025
C675	A#43	GND	1.964E-16	$X=52.75 $Y=156.884
C676	|I1/avC6#2	GND	1.200E-16	$X=54.2985 $Y=153.806
C677	|I2/avC7#2	GND	2.383E-16	$X=54.215 $Y=142.1655
C678	A#46	GND	2.862E-16	$X=53.212 $Y=141.0115
C679	|I4/|I3/avC6#2	GND	1.200E-16	$X=55.2185 $Y=78.457
C680	|I4/avC8#31	GND	1.964E-16	$X=53.67 $Y=81.536
C681	B#46	GND	5.999E-17	$X=55.0685 $Y=119.772
C682	B#49	GND	3.819E-16	$X=54.843 $Y=154.5525
C683	B#52	GND	1.964E-16	$X=55.0525 $Y=139.065
C684	|I4/avC9#4	GND	7.083E-17	$X=46.9685 $Y=80.667
C685	|I4/avC9#6	GND	5.193E-17	$X=46.648 $Y=80.1195
C686	|I4/avC9#9	GND	8.214E-17	$X=46.6485 $Y=81.512
C687	Cin#17	GND	5.999E-17	$X=56.2985 $Y=92.6425
C688	Cin#20	GND	3.819E-16	$X=55.763 $Y=79.2065
C689	|I3/avC9#3	GND	7.077E-17	$X=55.6385 $Y=119.7665
C690	|I3/avC9#5	GND	5.190E-17	$X=55.318 $Y=119.2195
C691	|I3/avC9#8	GND	8.214E-17	$X=55.3185 $Y=120.6115
C692	|I3/avC8#3	GND	6.874E-17	$X=52.4785 $Y=122.5265
C693	|I3/avC8#5	GND	5.193E-17	$X=52.158 $Y=121.9795
C694	|I3/avC8#8	GND	8.101E-17	$X=52.1585 $Y=123.3715
C695	|I1/D_nmos1v_avC_5#3	GND	1.105E-16	$X=54.8665 $Y=156.0155
C696	|I1/D_nmos1v_avC_5#4	GND	1.677E-16	$X=54.3 $Y=156.765
C697	|I1/D_nmos1v_avC_5#6	GND	1.599E-16	$X=52.9295 $Y=157.768
C698	|I1/D_nmos1v_avC_5#9	GND	5.162E-17	$X=54.298 $Y=155.3865
C699	|I1/D_nmos1v_avC_5#12	GND	1.544E-16	$X=55.8795 $Y=157.7675
C700	|I2/D_nmos1v_avC_3#4	GND	1.919E-16	$X=54.67 $Y=140.248
C701	|I2/D_nmos1v_avC_3#6	GND	1.869E-16	$X=54.67 $Y=138.8355
C702	|I2/D_nmos1v_avC_3#8	GND	1.141E-16	$X=53.4585 $Y=137.9865
C703	|I2/D_nmos1v_avC_3#11	GND	1.175E-16	$X=55.9485 $Y=137.9865
C704	A#49	GND	6.012E-16	$X=56.805 $Y=123.62
C705	|I1/D_nmos1v_avC_5#15	GND	5.999E-17	$X=57.8985 $Y=156.022
C706	|I2/D_nmos1v_avC_3#14	GND	5.998E-17	$X=57.9085 $Y=140.362
C707	|I3/avC6#2	GND	1.405E-16	$X=57.719 $Y=118.2065
C708	|I4/|I3/D_nmos1v_avC_5#3	GND	1.105E-16
+ $X=55.7865 $Y=80.667
C709	|I4/|I3/D_nmos1v_avC_5#4	GND	1.677E-16
+ $X=55.22 $Y=81.417
C710	|I4/|I3/D_nmos1v_avC_5#6	GND	1.599E-16
+ $X=53.8495 $Y=82.4195
C711	|I4/|I3/D_nmos1v_avC_5#9	GND	5.162E-17
+ $X=55.218 $Y=80.037
C712	|I4/|I3/D_nmos1v_avC_5#12	GND	1.541E-16
+ $X=56.7995 $Y=82.4195
C713	|I4/|I1/avC9#3	GND	7.077E-17	$X=56.8685 $Y=92.637
C714	|I4/|I1/avC9#5	GND	5.190E-17	$X=56.548 $Y=92.0895
C715	|I4/|I1/avC9#8	GND	8.214E-17	$X=56.5485 $Y=93.482
C716	|I4/|I1/avC8#3	GND	6.874E-17	$X=53.7085 $Y=95.397
C717	|I4/|I1/avC8#5	GND	5.193E-17	$X=53.388 $Y=94.8495
C718	|I4/|I1/avC8#8	GND	8.101E-17	$X=53.3885 $Y=96.242
C719	|I4/|I1/avC6#2	GND	1.405E-16	$X=58.949 $Y=91.0765
C720	|I4/|I3/D_nmos1v_avC_5#15	GND	5.999E-17
+ $X=58.818 $Y=80.6725
C721	|I4/avC8#34	GND	6.012E-16	$X=58.035 $Y=96.492
C722	|I3/avC10#2	GND	1.692E-16	$X=59.979 $Y=125.5535
C723	|I3/avC10#4	GND	1.608E-16	$X=58.7595 $Y=124.4365
C724	|I3/avC10#5	GND	1.824E-16	$X=58.7645 $Y=122.998
C725	|I3/avC10#7	GND	1.229E-16	$X=58.191 $Y=122.56
C726	|I3/avC10#10	GND	1.278E-16	$X=57.959 $Y=125.5535
C727	|I3/avC10#13	GND	1.198E-16	$X=59.271 $Y=122.56
C728	|I3/avC7#2	GND	1.489E-16	$X=59.739 $Y=118.1865
C729	|I3/avC8#11	GND	4.371E-16	$X=59.1225 $Y=121.2245
C730	|I3/avC9#11	GND	4.511E-16	$X=60.133 $Y=118.754
C731	|I4/|I1/avC10#2	GND	1.692E-16	$X=61.209 $Y=98.424
C732	|I4/|I1/avC10#4	GND	1.608E-16	$X=59.9895 $Y=97.307
C733	|I4/|I1/avC10#5	GND	1.824E-16	$X=59.9945 $Y=95.87
C734	|I4/|I1/avC10#7	GND	1.229E-16	$X=59.421 $Y=95.431
C735	|I4/|I1/avC10#10	GND	1.278E-16	$X=59.189 $Y=98.424
C736	|I4/|I1/avC10#13	GND	1.198E-16	$X=60.501 $Y=95.431
C737	|I4/|I1/avC7#2	GND	1.489E-16	$X=60.969 $Y=91.0565
C738	B#55	GND	1.036E-15	$X=57.7305 $Y=116.7275
C739	|I4/|I1/avC8#11	GND	4.371E-16	$X=60.3525 $Y=94.0955
C740	|I4/|I1/avC9#11	GND	4.511E-16	$X=61.363 $Y=91.6255
C741	Cin#23	GND	1.036E-15	$X=58.9605 $Y=89.6005
C742	|I4/avC10#5	GND	7.083E-17	$X=59.3885 $Y=80.667
C743	|I4/avC10#7	GND	5.193E-17	$X=59.068 $Y=80.1195
C744	|I4/avC10#10	GND	8.214E-17	$X=59.0685 $Y=81.512
C745	|I4/avC10#13	GND	2.862E-16	$X=64.9715 $Y=75.6245
C746	|I4/|I4/avC7#2	GND	2.383E-16	$X=65.9745 $Y=76.777
C747	avC13#3	GND	1.057E-16	$X=61.2085 $Y=94.55
C748	avC13#4	GND	1.425E-16	$X=59.9995 $Y=94.193
C749	avC13#6	GND	1.615E-16	$X=58.689 $Y=95.1515
C750	avC13#9	GND	9.333E-17	$X=61.2085 $Y=95.3205
C751	avC13#11	GND	1.183E-16	$X=59.999 $Y=93.575
C752	avC13#13	GND	8.359E-17	$X=59.1985 $Y=92.912
C753	avC13#16	GND	1.049E-16	$X=61.2185 $Y=92.912
C754	|I4/avC9#15	GND	1.964E-16	$X=66.8125 $Y=73.677
C755	|I4/|I4/D_nmos1v_avC_3#4	GND	1.919E-16
+ $X=66.43 $Y=74.86
C756	|I4/|I4/D_nmos1v_avC_3#6	GND	1.869E-16
+ $X=66.4295 $Y=73.447
C757	|I4/|I4/D_nmos1v_avC_3#8	GND	1.141E-16
+ $X=65.2185 $Y=72.597
C758	|I4/|I4/D_nmos1v_avC_3#11	GND	1.175E-16
+ $X=67.7085 $Y=72.597
C759	|I4/|I4/D_nmos1v_avC_3#14	GND	5.998E-17
+ $X=69.668 $Y=74.9725
C760	avC12#4	GND	7.083E-17	$X=58.4685 $Y=156.0165
C761	avC12#6	GND	5.193E-17	$X=58.148 $Y=155.469
C762	avC12#9	GND	8.214E-17	$X=58.1485 $Y=156.861
C763	avC11#4	GND	7.078E-17	$X=58.4785 $Y=140.3565
C764	avC11#6	GND	5.193E-17	$X=58.158 $Y=139.8095
C765	avC11#9	GND	8.214E-17	$X=58.1585 $Y=141.2015
C766	avC10#3	GND	1.057E-16	$X=59.9785 $Y=121.6795
C767	avC10#4	GND	1.425E-16	$X=58.7695 $Y=121.3225
C768	avC10#6	GND	1.615E-16	$X=57.4595 $Y=122.281
C769	avC10#9	GND	9.333E-17	$X=59.9785 $Y=122.45
C770	avC10#11	GND	1.183E-16	$X=58.769 $Y=120.7045
C771	avC10#13	GND	8.359E-17	$X=57.9685 $Y=120.0415
C772	avC10#16	GND	1.049E-16	$X=59.9885 $Y=120.0415
C773	S0#12	GND	1.313E-15	$X=99.8795 $Y=91.4335
C774	S0#16	GND	6.057E-16	$X=107.852 $Y=145.37
C775	S0#21	GND	6.057E-16	$X=107.852 $Y=85.715
C776	S0#26	GND	5.998E-17	$X=111.9375 $Y=142.272
C777	S0#29	GND	5.998E-17	$X=111.9375 $Y=82.6125
C778	|I0/|I0/avC7#3	GND	7.093E-17	$X=112.508 $Y=142.2665
C779	|I0/|I0/avC7#5	GND	5.206E-17	$X=112.1875 $Y=141.7195
C780	|I0/|I0/avC7#8	GND	8.214E-17	$X=112.188 $Y=143.1115
C781	|I0/|I1/avC7#3	GND	7.093E-17	$X=112.508 $Y=82.607
C782	|I0/|I1/avC7#5	GND	5.206E-17	$X=112.1875 $Y=82.0595
C783	|I0/|I1/avC7#8	GND	8.214E-17	$X=112.188 $Y=83.452
C784	|I0/|I0/|I0/avC6#2	GND	1.201E-16	$X=116.838 $Y=149.446
C785	|I0/|I0/|I1/avC6#2	GND	1.201E-16	$X=116.838 $Y=131.2865
C786	|I0/|I1/|I0/avC6#2	GND	1.201E-16	$X=116.838 $Y=89.787
C787	|I0/|I1/|I1/avC6#2	GND	1.201E-16	$X=116.838 $Y=71.627
C788	avC12#19	GND	1.964E-16	$X=115.2885 $Y=152.5245
C789	|I0/|I0/avC7#14	GND	1.884E-16	$X=115.2885 $Y=134.365
C790	avC10#28	GND	1.964E-16	$X=115.2885 $Y=92.866
C791	|I0/|I1/avC7#14	GND	1.884E-16	$X=115.2885 $Y=74.7065
C792	S0#38	GND	3.819E-16	$X=117.3795 $Y=150.1925
C793	avC11#19	GND	3.819E-16	$X=117.3795 $Y=132.0335
C794	S0#41	GND	3.819E-16	$X=117.3795 $Y=90.5355
C795	avC13#29	GND	3.819E-16	$X=117.3795 $Y=72.3765
C796	|I0/|I0/|I0/D_nmos1v_avC_5#3	GND	1.105E-16
+ $X=117.4055 $Y=151.6555
C797	|I0/|I0/|I0/D_nmos1v_avC_5#4	GND	1.677E-16
+ $X=116.8385 $Y=152.405
C798	|I0/|I0/|I0/D_nmos1v_avC_5#6	GND	1.599E-16
+ $X=115.468 $Y=153.408
C799	|I0/|I0/|I0/D_nmos1v_avC_5#9	GND	5.162E-17
+ $X=116.8375 $Y=151.0265
C800	|I0/|I0/|I0/D_nmos1v_avC_5#12	GND	1.540E-16
+ $X=118.418 $Y=153.408
C801	|I0/|I0/|I1/D_nmos1v_avC_5#3	GND	1.105E-16
+ $X=117.4055 $Y=133.496
C802	|I0/|I0/|I1/D_nmos1v_avC_5#4	GND	1.677E-16
+ $X=116.8385 $Y=134.2455
C803	|I0/|I0/|I1/D_nmos1v_avC_5#6	GND	1.599E-16
+ $X=115.468 $Y=135.2485
C804	|I0/|I0/|I1/D_nmos1v_avC_5#9	GND	5.162E-17
+ $X=116.8375 $Y=132.867
C805	|I0/|I0/|I1/D_nmos1v_avC_5#12	GND	1.544E-16
+ $X=118.418 $Y=135.248
C806	|I0/|I1/|I0/D_nmos1v_avC_5#3	GND	1.105E-16
+ $X=117.4055 $Y=91.9965
C807	|I0/|I1/|I0/D_nmos1v_avC_5#4	GND	1.677E-16
+ $X=116.8385 $Y=92.7465
C808	|I0/|I1/|I0/D_nmos1v_avC_5#6	GND	1.599E-16
+ $X=115.468 $Y=93.749
C809	|I0/|I1/|I0/D_nmos1v_avC_5#9	GND	5.162E-17
+ $X=116.8375 $Y=91.367
C810	|I0/|I1/|I0/D_nmos1v_avC_5#12	GND	1.540E-16
+ $X=118.418 $Y=93.749
C811	|I0/|I1/|I1/D_nmos1v_avC_5#3	GND	1.105E-16
+ $X=117.4055 $Y=73.837
C812	|I0/|I1/|I1/D_nmos1v_avC_5#4	GND	1.677E-16
+ $X=116.8385 $Y=74.587
C813	|I0/|I1/|I1/D_nmos1v_avC_5#6	GND	1.599E-16
+ $X=115.468 $Y=75.5895
C814	|I0/|I1/|I1/D_nmos1v_avC_5#9	GND	5.162E-17
+ $X=116.8375 $Y=73.207
C815	|I0/|I1/|I1/D_nmos1v_avC_5#12	GND	1.544E-16
+ $X=118.418 $Y=75.5895
C816	|I0/|I0/|I0/D_nmos1v_avC_5#15	GND	5.999E-17
+ $X=120.4375 $Y=151.662
C817	|I0/|I0/|I1/D_nmos1v_avC_5#15	GND	5.999E-17
+ $X=120.4375 $Y=133.502
C818	|I0/|I1/|I0/D_nmos1v_avC_5#15	GND	5.999E-17
+ $X=120.4375 $Y=92.0025
C819	|I0/|I1/|I1/D_nmos1v_avC_5#15	GND	5.999E-17
+ $X=120.4375 $Y=73.8425
C820	|I0/|I0/avC8#4	GND	7.083E-17	$X=121.0075 $Y=151.6565
C821	|I0/|I0/avC8#6	GND	5.193E-17	$X=120.6875 $Y=151.109
C822	|I0/|I0/avC8#9	GND	8.214E-17	$X=120.688 $Y=152.501
C823	|I0/|I1/avC8#4	GND	7.083E-17	$X=121.0075 $Y=91.997
C824	|I0/|I1/avC8#6	GND	5.193E-17	$X=120.6875 $Y=91.4495
C825	|I0/|I1/avC8#9	GND	8.214E-17	$X=120.688 $Y=92.842
C826	|I0/|I0/avC9#5	GND	7.083E-17	$X=121.0075 $Y=133.4965
C827	|I0/|I0/avC9#7	GND	5.193E-17	$X=120.6875 $Y=132.9495
C828	|I0/|I0/avC9#10	GND	8.214E-17	$X=120.688 $Y=134.3415
C829	|I0/|I1/avC9#5	GND	7.083E-17	$X=121.0075 $Y=73.837
C830	|I0/|I1/avC9#7	GND	5.193E-17	$X=120.6875 $Y=73.2895
C831	|I0/|I1/avC9#10	GND	8.214E-17	$X=120.688 $Y=74.682
C832	|I0/|I0/|I3/avC7#2	GND	2.384E-16	$X=125.923 $Y=144.3855
C833	|I0/|I1/|I3/avC7#2	GND	2.384E-16	$X=125.923 $Y=84.7265
C834	|I0/|I0/avC8#15	GND	2.864E-16	$X=124.919 $Y=143.2315
C835	|I0/|I1/avC8#15	GND	2.864E-16	$X=124.919 $Y=83.574
C836	|I0/|I0/avC9#13	GND	1.964E-16	$X=126.761 $Y=141.285
C837	|I0/|I1/avC9#13	GND	1.964E-16	$X=126.761 $Y=81.6265
C838	|I0/|I0/|I3/D_nmos1v_avC_3#4	GND	1.919E-16
+ $X=126.3785 $Y=142.468
C839	|I0/|I0/|I3/D_nmos1v_avC_3#6	GND	1.869E-16
+ $X=126.378 $Y=141.0555
C840	|I0/|I0/|I3/D_nmos1v_avC_3#8	GND	1.141E-16
+ $X=125.168 $Y=140.2065
C841	|I0/|I0/|I3/D_nmos1v_avC_3#11	GND	1.175E-16
+ $X=127.6575 $Y=140.206
C842	|I0/|I1/|I3/D_nmos1v_avC_3#4	GND	1.919E-16
+ $X=126.3785 $Y=82.8095
C843	|I0/|I1/|I3/D_nmos1v_avC_3#6	GND	1.869E-16
+ $X=126.378 $Y=81.397
C844	|I0/|I1/|I3/D_nmos1v_avC_3#8	GND	1.141E-16
+ $X=125.168 $Y=80.547
C845	|I0/|I1/|I3/D_nmos1v_avC_3#11	GND	1.175E-16
+ $X=127.6575 $Y=80.547
C846	|I0/|I0/|I3/D_nmos1v_avC_3#14	GND	5.998E-17
+ $X=129.6175 $Y=142.582
C847	|I0/|I1/|I3/D_nmos1v_avC_3#14	GND	5.998E-17
+ $X=129.6175 $Y=82.9225
C848	Cout#5	GND	7.078E-17	$X=70.238 $Y=74.967
C849	Cout#7	GND	5.193E-17	$X=69.918 $Y=74.4195
C850	Cout#10	GND	8.214E-17	$X=69.9185 $Y=75.812
C851	|I0/avC10#5	GND	7.078E-17	$X=130.1875 $Y=142.5765
C852	|I0/avC10#7	GND	5.193E-17	$X=129.8675 $Y=142.0295
C853	|I0/avC10#10	GND	8.214E-17	$X=129.8675 $Y=143.4215
C854	|I0/avC11#6	GND	7.078E-17	$X=130.1875 $Y=82.917
C855	|I0/avC11#8	GND	5.193E-17	$X=129.8675 $Y=82.3695
C856	|I0/avC11#11	GND	8.214E-17	$X=129.8675 $Y=83.762
C857	S1#11	GND	6.057E-16	$X=144.139 $Y=115.5425
C858	S1#16	GND	5.998E-17	$X=148.2275 $Y=112.4425
C859	|I0/|I2/avC7#3	GND	7.093E-17	$X=148.7975 $Y=112.4365
C860	|I0/|I2/avC7#5	GND	5.206E-17	$X=148.4775 $Y=111.8895
C861	|I0/|I2/avC7#8	GND	8.214E-17	$X=148.4775 $Y=113.2815
C862	|I0/|I2/|I0/avC6#2	GND	1.201E-16
+ $X=153.1275 $Y=119.6165
C863	|I0/|I2/|I1/avC6#2	GND	1.201E-16
+ $X=153.1275 $Y=101.4565
C864	|I0/avC10#19	GND	1.964E-16	$X=151.5775 $Y=122.695
C865	|I0/|I2/avC7#14	GND	1.884E-16
+ $X=151.5775 $Y=104.5355
C866	S1#22	GND	3.819E-16	$X=153.668 $Y=120.364
C867	|I0/avC11#17	GND	3.819E-16	$X=153.668 $Y=102.205
C868	|I0/|I2/|I0/D_nmos1v_avC_5#3	GND	1.105E-16
+ $X=153.695 $Y=121.826
C869	|I0/|I2/|I0/D_nmos1v_avC_5#4	GND	1.677E-16
+ $X=153.1275 $Y=122.576
C870	|I0/|I2/|I0/D_nmos1v_avC_5#6	GND	1.599E-16
+ $X=151.7575 $Y=123.5785
C871	|I0/|I2/|I0/D_nmos1v_avC_5#9	GND	5.162E-17
+ $X=153.1275 $Y=121.197
C872	|I0/|I2/|I0/D_nmos1v_avC_5#12	GND	1.540E-16
+ $X=154.7075 $Y=123.5785
C873	|I0/|I2/|I1/D_nmos1v_avC_5#3	GND	1.105E-16
+ $X=153.695 $Y=103.6665
C874	|I0/|I2/|I1/D_nmos1v_avC_5#4	GND	1.677E-16
+ $X=153.1275 $Y=104.416
C875	|I0/|I2/|I1/D_nmos1v_avC_5#6	GND	1.599E-16
+ $X=151.7575 $Y=105.419
C876	|I0/|I2/|I1/D_nmos1v_avC_5#9	GND	5.162E-17
+ $X=153.1275 $Y=103.037
C877	|I0/|I2/|I1/D_nmos1v_avC_5#12	GND	1.544E-16
+ $X=154.7075 $Y=105.419
C878	|I0/|I2/|I0/D_nmos1v_avC_5#15	GND	5.999E-17
+ $X=156.7275 $Y=121.832
C879	|I0/|I2/|I1/D_nmos1v_avC_5#15	GND	5.999E-17
+ $X=156.7275 $Y=103.6725
C880	|I0/|I2/avC8#4	GND	7.083E-17	$X=157.2975 $Y=121.8265
C881	|I0/|I2/avC8#6	GND	5.193E-17	$X=156.9775 $Y=121.2795
C882	|I0/|I2/avC8#9	GND	8.214E-17	$X=156.9775 $Y=122.6715
C883	|I0/|I2/avC9#5	GND	7.083E-17	$X=157.2975 $Y=103.667
C884	|I0/|I2/avC9#7	GND	5.193E-17	$X=156.9775 $Y=103.1195
C885	|I0/|I2/avC9#10	GND	8.214E-17	$X=156.9775 $Y=104.512
C886	|I0/|I2/|I3/avC7#2	GND	2.384E-16	$X=162.2125 $Y=114.556
C887	|I0/|I2/avC8#15	GND	2.864E-16	$X=161.2075 $Y=113.403
C888	|I0/|I2/avC9#13	GND	1.964E-16	$X=163.05 $Y=111.456
C889	|I0/|I2/|I3/D_nmos1v_avC_3#4	GND	1.919E-16
+ $X=162.6675 $Y=112.639
C890	|I0/|I2/|I3/D_nmos1v_avC_3#6	GND	1.869E-16
+ $X=162.6675 $Y=111.226
C891	|I0/|I2/|I3/D_nmos1v_avC_3#8	GND	1.141E-16
+ $X=161.4575 $Y=110.3765
C892	|I0/|I2/|I3/D_nmos1v_avC_3#11	GND	1.175E-16
+ $X=163.9475 $Y=110.3765
C893	|I0/|I2/|I3/D_nmos1v_avC_3#14	GND	5.998E-17
+ $X=165.907 $Y=112.7525
C894	OUT#5	GND	7.078E-17	$X=166.477 $Y=112.7465
C895	OUT#7	GND	5.193E-17	$X=166.157 $Y=112.1995
C896	OUT#10	GND	8.214E-17	$X=166.157 $Y=113.5915
C897	VDD#2	GND	2.235E-17	$X=165.772 $Y=114.5815
C898	VDD#6	GND	1.315E-16	$X=164.6635 $Y=116.311
C899	VDD#8	GND	1.247E-15	$X=159.2635 $Y=117.0475
C900	VDD#9	GND	6.525E-16	$X=159.725 $Y=126.531
C901	VDD#10	GND	5.883E-16	$X=151.4585 $Y=126.531
C902	VDD#13	GND	1.804E-16	$X=154.4575 $Y=124.83
C903	VDD#21	GND	1.282E-16	$X=163.1675 $Y=115.6745
C904	VDD#27	GND	1.808E-16	$X=154.4575 $Y=106.6705
C905	VDD#33	GND	3.935E-15	$X=139.045 $Y=127.4195
C906	VDD#35	GND	6.574E-16	$X=123.4385 $Y=96.704
C907	VDD#36	GND	6.840E-16	$X=115.172 $Y=96.704
C908	VDD#39	GND	1.804E-16	$X=118.169 $Y=95.001
C909	VDD#46	GND	2.235E-17	$X=148.0925 $Y=114.2715
C910	VDD#55	GND	2.223E-17	$X=156.5925 $Y=123.6615
C911	VDD#62	GND	6.228E-17	$X=151.2575 $Y=124.024
C912	VDD#75	GND	8.240E-17	$X=151.2575 $Y=105.864
C913	VDD#79	GND	2.223E-17	$X=156.5925 $Y=105.502
C914	VDD#84	GND	2.549E-15	$X=145.4595 $Y=158.402
C915	VDD#86	GND	6.574E-16	$X=123.4385 $Y=156.3585
C916	VDD#87	GND	6.840E-16	$X=115.172 $Y=156.358
C917	VDD#90	GND	1.804E-16	$X=118.169 $Y=154.659
C918	VDD#95	GND	1.247E-15	$X=122.9795 $Y=87.2225
C919	VDD#97	GND	1.315E-16	$X=128.3735 $Y=86.4815
C920	VDD#98	GND	1.282E-16	$X=126.878 $Y=85.845
C921	VDD#104	GND	2.235E-17	$X=111.803 $Y=84.442
C922	VDD#114	GND	6.228E-17	$X=114.968 $Y=94.1945
C923	VDD#118	GND	2.223E-17	$X=120.3025 $Y=93.832
C924	VDD#124	GND	3.961E-15	$X=105.7905 $Y=188.0175
C925	VDD#125	GND	3.421E-15	$X=74.4915 $Y=169.41
C926	VDD#126	GND	2.362E-15	$X=74.4775 $Y=148.7885
C927	VDD#127	GND	2.600E-15	$X=74.48 $Y=123.8945
C928	VDD#129	GND	5.169E-16	$X=55.0255 $Y=107.5415
C929	VDD#131	GND	2.552E-16	$X=43.0025 $Y=105.2505
C930	VDD#134	GND	2.521E-17	$X=40.5835 $Y=102.922
C931	VDD#139	GND	1.247E-15	$X=122.9795 $Y=146.872
C932	VDD#141	GND	1.315E-16	$X=128.3735 $Y=146.1405
C933	VDD#142	GND	1.282E-16	$X=126.878 $Y=145.504
C934	VDD#148	GND	2.235E-17	$X=111.803 $Y=144.1015
C935	VDD#158	GND	6.228E-17	$X=114.968 $Y=153.8535
C936	VDD#162	GND	2.223E-17	$X=120.3025 $Y=153.4915
C937	VDD#169	GND	1.808E-16	$X=118.169 $Y=76.8415
C938	VDD#176	GND	2.235E-17	$X=129.4825 $Y=84.752
C939	VDD#189	GND	1.808E-16	$X=55.631 $Y=159.019
C940	VDD#195	GND	1.148E-16	$X=56.665 $Y=143.9205
C941	VDD#196	GND	1.375E-16	$X=55.169 $Y=143.284
C942	VDD#201	GND	2.471E-16	$X=54.192 $Y=126.69
C943	VDD#204	GND	2.521E-17	$X=51.7735 $Y=124.3615
C944	VDD#209	GND	1.398E-15	$X=62.22 $Y=107.108
C945	VDD#211	GND	2.552E-16	$X=55.422 $Y=99.561
C946	VDD#214	GND	2.521E-17	$X=53.0035 $Y=97.232
C947	VDD#223	GND	1.300E-16	$X=46.2695 $Y=103.9955
C948	VDD#231	GND	2.235E-17	$X=43.7435 $Y=100.162
C949	VDD#238	GND	1.808E-16	$X=118.169 $Y=136.4995
C950	VDD#245	GND	2.235E-17	$X=129.4825 $Y=144.4115
C951	VDD#261	GND	8.240E-17	$X=114.968 $Y=76.0345
C952	VDD#265	GND	2.223E-17	$X=120.3025 $Y=75.672
C953	VDD#275	GND	6.228E-17	$X=52.4285 $Y=158.2135
C954	VDD#279	GND	2.223E-17	$X=57.7635 $Y=157.8515
C955	VDD#286	GND	2.235E-17	$X=57.7735 $Y=142.1915
C956	VDD#301	GND	1.300E-16	$X=57.4595 $Y=125.435
C957	VDD#309	GND	2.235E-17	$X=54.9335 $Y=121.6015
C958	VDD#314	GND	1.698E-15	$X=67.6005 $Y=92.1015
C959	VDD#316	GND	1.352E-16	$X=68.4245 $Y=78.532
C960	VDD#317	GND	1.375E-16	$X=66.929 $Y=77.895
C961	VDD#325	GND	1.300E-16	$X=58.6895 $Y=98.3055
C962	VDD#333	GND	2.235E-17	$X=56.1635 $Y=94.472
C963	VDD#350	GND	8.240E-17	$X=114.968 $Y=135.694
C964	VDD#354	GND	2.223E-17	$X=120.3025 $Y=135.3315
C965	VDD#366	GND	8.656E-16	$X=56.8105 $Y=85.5895
C966	VDD#369	GND	1.805E-16	$X=56.551 $Y=83.6715
C967	VDD#376	GND	2.235E-17	$X=69.533 $Y=76.802
C968	VDD#402	GND	1.808E-16	$X=44.1315 $Y=83.6715
C969	VDD#412	GND	6.228E-17	$X=53.3485 $Y=82.8645
C970	VDD#416	GND	2.223E-17	$X=58.6835 $Y=82.502
C971	VDD#429	GND	6.228E-17	$X=40.9285 $Y=82.8645
C972	VDD#433	GND	2.223E-17	$X=46.2635 $Y=82.502
*
*
.ENDS ALU
*
