*
*
*
*                       LINUX           Sun Jan 19 16:29:35 2025
*
*
*
*  PROGRAM  advgen
*
*  HSPICE LIBRARY
*
*
*

*
.SUBCKT full_adder VDD GND A B Cin Cout SUM
*
*
*  caps2d version: 10
*
*
*       TRANSISTOR CARDS
*
*
M|I0/|I0/avD1_1	|I0/avC8#4	A#11	GND#55	GND#1
+ nmos1v#20ivpcell#20gpdk090	L=0.18U	W=0.42U
+ AD=0.1176P	AS=0.1176P	PD=1.4U	PS=1.4U
+ simW=4.2e-07 fw=4.2e-07 
M|I0/|I1/avD1_1	|I0/avC9#4	B#15	GND#53	GND#1
+ nmos1v#20ivpcell#20gpdk090	L=0.18U	W=0.42U
+ AD=0.1176P	AS=0.1176P	PD=1.4U	PS=1.4U
+ simW=4.2e-07 fw=4.2e-07 
M|I0/avD1_1	avC8#19	A#17	|I0/avC6#5	GND#1
+ nmos1v#20ivpcell#20gpdk090	L=0.18U	W=0.42U
+ AD=0.1176P	AS=0.1176P	PD=1.4U	PS=1.4U
+ simW=4.2e-07 fw=4.2e-07 
M|I0/avD1_2	|I0/avC6	B#21	GND#45	GND#1
+ nmos1v#20ivpcell#20gpdk090	L=0.18U	W=0.42U
+ AD=0.1176P	AS=0.1176P	PD=1.4U	PS=1.4U
+ simW=4.2e-07 fw=4.2e-07 
M|I0/avD1_3	avC8#22	|I0/avC8#10	|I0/avC7#5	GND#1
+ nmos1v#20ivpcell#20gpdk090	L=0.18U	W=0.42U
+ AD=0.1176P	AS=0.1176P	PD=1.4U	PS=1.4U
+ simW=4.2e-07 fw=4.2e-07 
M|I0/avD1_4	|I0/avC7	|I0/avC9#10	GND#81	GND#1
+ nmos1v#20ivpcell#20gpdk090	L=0.18U	W=0.42U
+ AD=0.1176P	AS=0.1176P	PD=1.4U	PS=1.4U
+ simW=4.2e-07 fw=4.2e-07 
M|I1/|I0/avD1_1	|I1/avC8#4	avC8#27	GND#43	GND#1
+ nmos1v#20ivpcell#20gpdk090	L=0.18U	W=0.42U
+ AD=0.1176P	AS=0.1176P	PD=1.4U	PS=1.4U
+ simW=4.2e-07 fw=4.2e-07 
M|I1/|I1/avD1_1	|I1/avC9#4	Cin#15	GND#80	GND#1
+ nmos1v#20ivpcell#20gpdk090	L=0.18U	W=0.42U
+ AD=0.1176P	AS=0.1176P	PD=1.4U	PS=1.4U
+ simW=4.2e-07 fw=4.2e-07 
M|I1/avD1_1	SUM#12	avC8#33	|I1/avC6#5	GND#1
+ nmos1v#20ivpcell#20gpdk090	L=0.18U	W=0.42U
+ AD=0.1176P	AS=0.1176P	PD=1.4U	PS=1.4U
+ simW=4.2e-07 fw=4.2e-07 
M|I1/avD1_2	|I1/avC6	Cin#21	GND#72	GND#1
+ nmos1v#20ivpcell#20gpdk090	L=0.18U	W=0.42U
+ AD=0.1176P	AS=0.1176P	PD=1.4U	PS=1.4U
+ simW=4.2e-07 fw=4.2e-07 
M|I1/avD1_3	SUM#15	|I1/avC8#10	|I1/avC7#5	GND#1
+ nmos1v#20ivpcell#20gpdk090	L=0.18U	W=0.42U
+ AD=0.1176P	AS=0.1176P	PD=1.4U	PS=1.4U
+ simW=4.2e-07 fw=4.2e-07 
M|I1/avD1_4	|I1/avC7	|I1/avC9#10	GND#84	GND#1
+ nmos1v#20ivpcell#20gpdk090	L=0.18U	W=0.42U
+ AD=0.1176P	AS=0.1176P	PD=1.4U	PS=1.4U
+ simW=4.2e-07 fw=4.2e-07 
M|I4/|I0/avD1_1	Cout#4	|I4/D_nmos1v_avC_7#15	GND#20	GND#1
+ nmos1v#20ivpcell#20gpdk090	L=0.18U	W=0.42U
+ AD=0.1176P	AS=0.1176P	PD=1.4U	PS=1.4U
+ simW=4.2e-07 fw=4.2e-07 
M|I4/avD1_1	|I4/D_nmos1v_avC_7#7	avC10#14	GND#22	GND#1
+ nmos1v#20ivpcell#20gpdk090	L=0.18U	W=0.42U
+ AD=0.1176P	AS=0.1176P	PD=1.4U	PS=1.4U
+ simW=4.2e-07 fw=4.2e-07 
M|I4/avD1_2	|I4/D_nmos1v_avC_7#10	avC9#14	GND#56	GND#1
+ nmos1v#20ivpcell#20gpdk090	L=0.18U	W=0.42U
+ AD=0.1176P	AS=0.1176P	PD=1.4U	PS=1.4U
+ simW=4.2e-07 fw=4.2e-07 
M|I3/|I0/avD1_1	avC10#6	|I3/D_nmos1v_avC_9#16	GND#64	GND#1
+ nmos1v#20ivpcell#20gpdk090	L=0.18U	W=0.42U
+ AD=0.1176P	AS=0.1176P	PD=1.4U	PS=1.4U
+ simW=4.2e-07 fw=4.2e-07 
M|I3/avD1_1	|I3/avC6	Cin#18	GND#27	GND#1
+ nmos1v#20ivpcell#20gpdk090	L=0.18U	W=0.42U
+ AD=0.1176P	AS=0.1176P	PD=1.4U	PS=1.4U
+ simW=4.2e-07 fw=4.2e-07 
M|I3/avD1_2	|I3/D_nmos1v_avC_9#8	avC8#30	|I3/avC6#5	GND#1
+ nmos1v#20ivpcell#20gpdk090	L=0.18U	W=0.42U
+ AD=0.1176P	AS=0.1176P	PD=1.4U	PS=1.4U
+ simW=4.2e-07 fw=4.2e-07 
M|I2/|I0/avD1_1	avC9#5	|I2/D_nmos1v_avC_9#16	GND#70	GND#1
+ nmos1v#20ivpcell#20gpdk090	L=0.18U	W=0.42U
+ AD=0.1176P	AS=0.1176P	PD=1.4U	PS=1.4U
+ simW=4.2e-07 fw=4.2e-07 
M|I2/avD1_1	|I2/avC6	B#18	GND#32	GND#1
+ nmos1v#20ivpcell#20gpdk090	L=0.18U	W=0.42U
+ AD=0.1176P	AS=0.1176P	PD=1.4U	PS=1.4U
+ simW=4.2e-07 fw=4.2e-07 
M|I2/avD1_2	|I2/D_nmos1v_avC_9#8	A#14	|I2/avC6#5	GND#1
+ nmos1v#20ivpcell#20gpdk090	L=0.18U	W=0.42U
+ AD=0.1176P	AS=0.1176P	PD=1.4U	PS=1.4U
+ simW=4.2e-07 fw=4.2e-07 
M|I0/|I0/avD7_1	|I0/avC8#7	A#9	VDD#39	VDD#34
+ pmos1v#20ivpcell#20gpdk090	L=0.18U	W=0.985U
+ AD=0.2758P	AS=0.2758P	PD=2.53U	PS=2.53U
+ simW=9.85e-07 fw=9.85e-07 
M|I0/|I1/avD7_1	|I0/avC9#7	B#13	VDD#110	VDD#105
+ pmos1v#20ivpcell#20gpdk090	L=0.18U	W=0.985U
+ AD=0.2758P	AS=0.2758P	PD=2.53U	PS=2.53U
+ simW=9.85e-07 fw=9.85e-07 
M|I0/|PM1/avD7_1	|I0/avC10	B#19	VDD#134	VDD#129
+ pmos1v#20ivpcell#20gpdk090	L=0.18U	W=0.985U
+ AD=0.2758P	AS=0.2758P	PD=2.53U	PS=2.53U
+ simW=9.85e-07 fw=9.85e-07 
M|I0/|PM0/avD7_1	|I0/avC10#9	A#19	VDD#97	VDD#94
+ pmos1v#20ivpcell#20gpdk090	L=0.18U	W=0.985U
+ AD=0.2758P	AS=0.2758P	PD=2.53U	PS=2.53U
+ simW=9.85e-07 fw=9.85e-07 
M|I0/|PM3/avD7_1	avC8#15	|I0/avC9#12	|I0/avC10#12	VDD#136
+ pmos1v#20ivpcell#20gpdk090	L=0.18U	W=0.985U
+ AD=0.2758P	AS=0.2758P	PD=2.53U	PS=2.53U
+ simW=9.85e-07 fw=9.85e-07 
M|I0/|PM2/avD7_1	avC8#10	|I0/avC8#12	|I0/avC10#6	VDD#101
+ pmos1v#20ivpcell#20gpdk090	L=0.18U	W=0.985U
+ AD=0.2758P	AS=0.2758P	PD=2.53U	PS=2.53U
+ simW=9.85e-07 fw=9.85e-07 
M|I1/|I0/avD7_1	|I1/avC8#7	avC8#25	VDD#46	VDD#41
+ pmos1v#20ivpcell#20gpdk090	L=0.18U	W=0.985U
+ AD=0.2758P	AS=0.2758P	PD=2.53U	PS=2.53U
+ simW=9.85e-07 fw=9.85e-07 
M|I1/|I1/avD7_1	|I1/avC9#7	Cin#13	VDD#60	VDD#55
+ pmos1v#20ivpcell#20gpdk090	L=0.18U	W=0.985U
+ AD=0.2758P	AS=0.2758P	PD=2.53U	PS=2.53U
+ simW=9.85e-07 fw=9.85e-07 
M|I1/|PM1/avD7_1	|I1/avC10	Cin#19	VDD#66	VDD#61
+ pmos1v#20ivpcell#20gpdk090	L=0.18U	W=0.985U
+ AD=0.2758P	AS=0.2758P	PD=2.53U	PS=2.53U
+ simW=9.85e-07 fw=9.85e-07 
M|I1/|PM0/avD7_1	|I1/avC10#9	avC8#35	VDD#47	VDD#12
+ pmos1v#20ivpcell#20gpdk090	L=0.18U	W=0.985U
+ AD=0.2758P	AS=0.2758P	PD=2.53U	PS=2.53U
+ simW=9.85e-07 fw=9.85e-07 
M|I1/|PM3/avD7_1	SUM#8	|I1/avC9#12	|I1/avC10#12	VDD#112
+ pmos1v#20ivpcell#20gpdk090	L=0.18U	W=0.985U
+ AD=0.2758P	AS=0.2758P	PD=2.53U	PS=2.53U
+ simW=9.85e-07 fw=9.85e-07 
M|I1/|PM2/avD7_1	SUM#5	|I1/avC8#12	|I1/avC10#6	VDD#51
+ pmos1v#20ivpcell#20gpdk090	L=0.18U	W=0.985U
+ AD=0.2758P	AS=0.2758P	PD=2.53U	PS=2.53U
+ simW=9.85e-07 fw=9.85e-07 
M|I4/|I0/avD7_1	Cout#7	|I4/D_nmos1v_avC_7#13	VDD#17	VDD#1
+ pmos1v#20ivpcell#20gpdk090	L=0.18U	W=0.985U
+ AD=0.2758P	AS=0.2758P	PD=2.53U	PS=2.53U
+ simW=9.85e-07 fw=9.85e-07 
M|I4/|PM0/avD7_1	|I4/avC7	avC10#12	VDD#72	VDD#67
+ pmos1v#20ivpcell#20gpdk090	L=0.18U	W=0.985U
+ AD=0.2758P	AS=0.2758P	PD=2.53U	PS=2.53U
+ simW=9.85e-07 fw=9.85e-07 
M|I4/|PM1/avD7_1	|I4/D_nmos1v_avC_7#3	avC9#16	|I4/avC7#5
+ VDD#19	pmos1v#20ivpcell#20gpdk090	L=0.18U	W=0.985U
+ AD=0.2758P	AS=0.2758P	PD=2.53U	PS=2.53U
+ simW=9.85e-07 fw=9.85e-07 
M|I3/|I0/avD7_1	avC10#9	|I3/D_nmos1v_avC_9#14	VDD#93	VDD#88
+ pmos1v#20ivpcell#20gpdk090	L=0.18U	W=0.985U
+ AD=0.2758P	AS=0.2758P	PD=2.53U	PS=2.53U
+ simW=9.85e-07 fw=9.85e-07 
M|I3/|PM1/avD7_1	|I3/D_nmos1v_avC_9#11	Cin#16	VDD#29	VDD#24
+ pmos1v#20ivpcell#20gpdk090	L=0.18U	W=0.985U
+ AD=0.2758P	AS=0.2758P	PD=2.53U	PS=2.53U
+ simW=9.85e-07 fw=9.85e-07 
M|I3/|PM0/avD7_1	|I3/D_nmos1v_avC_9#5	avC8#32	VDD#84	VDD#81
+ pmos1v#20ivpcell#20gpdk090	L=0.18U	W=0.985U
+ AD=0.2758P	AS=0.2758P	PD=2.53U	PS=2.53U
+ simW=9.85e-07 fw=9.85e-07 
M|I2/|I0/avD7_1	avC9#8	|I2/D_nmos1v_avC_9#14	VDD#127	VDD#122
+ pmos1v#20ivpcell#20gpdk090	L=0.18U	W=0.985U
+ AD=0.2758P	AS=0.2758P	PD=2.53U	PS=2.53U
+ simW=9.85e-07 fw=9.85e-07 
M|I2/|PM1/avD7_1	|I2/D_nmos1v_avC_9#11	B#16	VDD#79	VDD#74
+ pmos1v#20ivpcell#20gpdk090	L=0.18U	W=0.985U
+ AD=0.2758P	AS=0.2758P	PD=2.53U	PS=2.53U
+ simW=9.85e-07 fw=9.85e-07 
M|I2/|PM0/avD7_1	|I2/D_nmos1v_avC_9#5	A#16	VDD#118	VDD#115
+ pmos1v#20ivpcell#20gpdk090	L=0.18U	W=0.985U
+ AD=0.2758P	AS=0.2758P	PD=2.53U	PS=2.53U
+ simW=9.85e-07 fw=9.85e-07 
*
*
*       RESISTOR AND CAP/DIODE CARDS
*
Ri1	Cin#1	Cin	   13.1263	$mt1	$X=2.405 $Y=7.12
Ri2	A#3	A#4	   11.1816	$mt1	$X=5.895 $Y=37.4
Ri3	A#4	A#5	    0.1206	$mt1	$X=5.215 $Y=36.7
Ri4	A#5	A#6	    1.6883	$mt1	$X=4.355 $Y=36.7
Ri5	A#6	A	    2.3336	$mt1	$X=1.835 $Y=35.6
Ri6	A#4	A#7	    1.4150	$mt1	$X=5.33 $Y=35.75
Ri7	A#7	A#8	   10.4667	$mt1	$X=5.96 $Y=34.8
Ri8	A#6	A#2	    2.8503	$mt1	$X=3.61 $Y=33.46
Ri9	B#3	B#4	   11.0250	$mt1	$X=6.385 $Y=32.04
Ri10	B#4	B#5	    0.6406	$mt1	$X=5.605 $Y=30.995
Ri11	B#5	B#6	    8.2383	$mt1	$X=3.71 $Y=30.995
Ri12	B#6	B	    1.4736	$mt1	$X=1.19 $Y=21.36
Ri13	B#4	B#7	   11.3869	$mt1	$X=6.11 $Y=29.9525
Ri14	B#6	B#2	    6.4950	$mt1	$X=2.32 $Y=17.7
Ri15	A#12	A#13	   10.5000	$mt1	$X=7.145 $Y=14.67
Ri16	A#13	A#1	    0.5533	$mt1	$X=6.355 $Y=14.67
Ri17	B#8	B#9	   10.5000	$mt1	$X=7.145 $Y=14.04
Ri18	B#9	B#1	    0.6000	$mt1	$X=6.32 $Y=14.04
Ri20	|I2/avC6#2	|I2/avC6#4	    1.4494	$mt1
+ $X=8.7905 $Y=12.64
Ri21	|I2/avC6#4	|I2/avC6#5	   15.0000	$mt1
+ $X=8.64 $Y=13.63
Ri22	|I2/avC6	|I2/avC6#2	   15.0000	$mt1
+ $X=9.14 $Y=11.85
Ri23	B#11	B#12	   10.4667	$mt1	$X=9.12 $Y=32.04
Ri24	B#12	B#10	    0.8600	$mt1	$X=8.125 $Y=32.04
Ri25	|I2/D_nmos1v_avC_9	|I2/D_nmos1v_avC_9#2	   10.4667	$mt1
+ $X=11.64 $Y=14.38
Ri26	|I2/D_nmos1v_avC_9#2	|I2/D_nmos1v_avC_9#3	    1.4021	$mt1
+ $X=10.215 $Y=14.38
Ri27	|I2/D_nmos1v_avC_9#3	|I2/D_nmos1v_avC_9#4	    0.6027	$mt1
+ $X=9.14 $Y=14.86
Ri28	|I2/D_nmos1v_avC_9#4	|I2/D_nmos1v_avC_9#6	    1.6402	$mt1
+ $X=8.455 $Y=15.34
Ri30	|I2/D_nmos1v_avC_9#3	|I2/D_nmos1v_avC_9#9	    0.4939	$mt1
+ $X=9.14 $Y=14.08
Ri32	|I2/D_nmos1v_avC_9#4	|I2/D_nmos1v_avC_9#12	    1.7802	$mt1
+ $X=9.93 $Y=15.34
Ri34	|I2/D_nmos1v_avC_9#5	|I2/D_nmos1v_avC_9#6	    5.0000	$mt1
+ $X=7.77 $Y=16.4925
Ri35	|I2/D_nmos1v_avC_9#8	|I2/D_nmos1v_avC_9#9	   15.0000	$mt1
+ $X=9.14 $Y=13.63
Ri36	|I2/D_nmos1v_avC_9#11	|I2/D_nmos1v_avC_9#12	    5.0000	$mt1
+ $X=10.72 $Y=16.4925
Ri37	|I0/avC9	|I0/avC9#2	   10.9514	$mt1
+ $X=12.1 $Y=31.535
Ri38	|I0/avC9#2	|I0/avC9#3	    0.7421	$mt1
+ $X=11.05 $Y=32.04
Ri39	|I0/avC9#3	|I0/avC9#5	    0.4205	$mt1
+ $X=10.47 $Y=31.795
Ri41	|I0/avC9#3	|I0/avC9#8	    0.6222	$mt1
+ $X=10.47 $Y=32.295
Ri43	|I0/avC9#4	|I0/avC9#5	   15.0000	$mt1
+ $X=10.47 $Y=31.4
Ri44	|I0/avC9#7	|I0/avC9#8	    5.0000	$mt1
+ $X=10.47 $Y=32.9825
Ri45	|I0/avC8	|I0/avC8#2	   13.4361	$mt1
+ $X=10.895 $Y=36.23
Ri46	|I0/avC8#2	|I0/avC8#3	    0.7421	$mt1
+ $X=7.89 $Y=34.8
Ri47	|I0/avC8#3	|I0/avC8#5	    0.4205	$mt1
+ $X=7.31 $Y=34.555
Ri49	|I0/avC8#3	|I0/avC8#8	    0.6222	$mt1
+ $X=7.31 $Y=35.055
Ri51	|I0/avC8#4	|I0/avC8#5	   15.0000	$mt1
+ $X=7.31 $Y=34.16
Ri52	|I0/avC8#7	|I0/avC8#8	    5.0000	$mt1
+ $X=7.31 $Y=35.7425
Ri54	|I0/avC6#2	|I0/avC6#4	    1.8694	$mt1
+ $X=12.62 $Y=30.7145
Ri55	|I0/avC6#4	|I0/avC6#5	   15.0000	$mt1
+ $X=12.62 $Y=32.05
Ri56	|I0/avC6	|I0/avC6#2	   15.0000	$mt1
+ $X=13.12 $Y=29.64
Ri58	|I0/avC10#2	|I0/avC10#4	    1.3900	$mt1
+ $X=14.7055 $Y=37.15
Ri59	|I0/avC10#4	|I0/avC10#5	    1.2422	$mt1
+ $X=13.91 $Y=36.21
Ri60	|I0/avC10#5	|I0/avC10#7	6.458E-02	$mt1
+ $X=13.51 $Y=34.835
Ri62	|I0/avC10#4	|I0/avC10#10	    1.1100	$mt1
+ $X=13.51 $Y=37.15
Ri64	|I0/avC10#5	|I0/avC10#13	5.812E-02	$mt1
+ $X=14.27 $Y=34.835
Ri66	|I0/avC10	|I0/avC10#2	    5.0000	$mt1
+ $X=15.13 $Y=38.0725
Ri67	|I0/avC10#6	|I0/avC10#7	    5.0000	$mt1
+ $X=13.11 $Y=34.8325
Ri68	|I0/avC10#9	|I0/avC10#10	    5.0000	$mt1
+ $X=13.11 $Y=38.0725
Ri69	|I0/avC10#12	|I0/avC10#13	    5.0000	$mt1
+ $X=14.63 $Y=34.8325
Ri71	|I0/avC7#2	|I0/avC7#4	    1.8694	$mt1
+ $X=14.64 $Y=30.7145
Ri72	|I0/avC7#4	|I0/avC7#5	   15.0000	$mt1
+ $X=14.64 $Y=32.05
Ri73	|I0/avC7	|I0/avC7#2	   15.0000	$mt1
+ $X=15.14 $Y=29.64
Ri74	avC8#3	avC8#4	   11.1816	$mt1	$X=18.315 $Y=31.71
Ri75	avC8#4	avC8#5	    0.1206	$mt1	$X=17.635 $Y=31.01
Ri76	avC8#5	avC8#6	    0.3821	$mt1	$X=17.21 $Y=31.01
Ri77	avC8#6	avC8#7	    2.1886	$mt1	$X=16.9 $Y=32.4275
Ri78	avC8#7	avC8#8	    0.8369	$mt1	$X=15.76 $Y=33.845
Ri79	avC8#8	avC8#9	    0.8005	$mt1	$X=14.525 $Y=33.845
Ri80	avC8#9	avC8#11	    1.4933	$mt1	$X=13.265 $Y=33.845
Ri82	avC8#4	avC8#13	    1.4150	$mt1	$X=17.75 $Y=30.06
Ri83	avC8#13	avC8#14	   10.4667	$mt1
+ $X=18.38 $Y=29.11
Ri84	avC8#6	avC8	    6.5633	$mt1	$X=16.9 $Y=28.36
Ri85	avC8#8	avC8#16	    0.6256	$mt1	$X=15.13 $Y=34.1225
Ri87	avC8#9	avC8#18	    0.6794	$mt1	$X=13.92 $Y=33.2875
Ri88	avC8#18	avC8#20	    0.9452	$mt1
+ $X=13.52 $Y=32.73
Ri90	avC8#18	avC8#23	    1.2252	$mt1
+ $X=14.53 $Y=32.73
Ri92	avC8#10	avC8#11	    5.0000	$mt1
+ $X=12.61 $Y=34.8325
Ri93	avC8#15	avC8#16	    5.0000	$mt1
+ $X=15.13 $Y=34.8325
Ri94	avC8#19	avC8#20	   15.0000	$mt1
+ $X=13.12 $Y=32.05
Ri95	avC8#22	avC8#23	   15.0000	$mt1
+ $X=15.14 $Y=32.05
Ri96	Cin#4	Cin#5	   11.0250	$mt1	$X=18.805 $Y=26.35
Ri97	Cin#5	Cin#6	    0.6406	$mt1	$X=18.025 $Y=25.305
Ri98	Cin#6	Cin#2	    2.4947	$mt1	$X=17.045 $Y=25.305
Ri99	Cin#5	Cin#7	   11.3869	$mt1	$X=18.53 $Y=24.2625
Ri100	Cin#8	Cin#9	   10.5000	$mt1	$X=19.565 $Y=14.04
Ri101	Cin#9	Cin#3	   11.7467	$mt1	$X=17.88 $Y=14.04
Ri102	avC8#28	avC8#29	   10.5000	$mt1
+ $X=19.565 $Y=14.67
Ri103	avC8#29	avC8#2	    2.4800	$mt1	$X=17.33 $Y=14.67
Ri105	|I3/avC6#2	|I3/avC6#4	    1.4494	$mt1
+ $X=21.2105 $Y=12.64
Ri106	|I3/avC6#4	|I3/avC6#5	   15.0000	$mt1
+ $X=21.06 $Y=13.63
Ri107	|I3/avC6	|I3/avC6#2	   15.0000	$mt1
+ $X=21.56 $Y=11.85
Ri108	Cin#11	Cin#12	   10.4667	$mt1	$X=21.54 $Y=26.35
Ri109	Cin#12	Cin#10	    0.8600	$mt1	$X=20.545 $Y=26.35
Ri110	avC9	avC9#2	   19.8094	$mt1	$X=18.845 $Y=7.37
Ri111	avC9#2	avC9#3	    0.3867	$mt1	$X=14.44 $Y=14.38
Ri112	avC9#3	avC9#4	    0.7421	$mt1	$X=13.57 $Y=14.38
Ri113	avC9#4	avC9#6	    0.4205	$mt1	$X=12.99 $Y=14.135
Ri115	avC9#4	avC9#9	    0.6222	$mt1	$X=12.99 $Y=14.635
Ri117	avC9#5	avC9#6	   15.0000	$mt1	$X=12.99 $Y=13.74
Ri118	avC9#8	avC9#9	    5.0000	$mt1	$X=12.99 $Y=15.3225
Ri119	|I3/D_nmos1v_avC_9	|I3/D_nmos1v_avC_9#2	   10.4667	$mt1
+ $X=24.06 $Y=14.38
Ri120	|I3/D_nmos1v_avC_9#2	|I3/D_nmos1v_avC_9#3	    1.4021	$mt1
+ $X=22.635 $Y=14.38
Ri121	|I3/D_nmos1v_avC_9#3	|I3/D_nmos1v_avC_9#4	    0.6027	$mt1
+ $X=21.56 $Y=14.86
Ri122	|I3/D_nmos1v_avC_9#4	|I3/D_nmos1v_avC_9#6	    1.6402	$mt1
+ $X=20.875 $Y=15.34
Ri124	|I3/D_nmos1v_avC_9#3	|I3/D_nmos1v_avC_9#9	    0.4939	$mt1
+ $X=21.56 $Y=14.08
Ri126	|I3/D_nmos1v_avC_9#4	|I3/D_nmos1v_avC_9#12	    1.7802	$mt1
+ $X=22.35 $Y=15.34
Ri128	|I3/D_nmos1v_avC_9#5	|I3/D_nmos1v_avC_9#6	    5.0000	$mt1
+ $X=20.19 $Y=16.4925
Ri129	|I3/D_nmos1v_avC_9#8	|I3/D_nmos1v_avC_9#9	   15.0000	$mt1
+ $X=21.56 $Y=13.63
Ri130	|I3/D_nmos1v_avC_9#11	|I3/D_nmos1v_avC_9#12	    5.0000	$mt1
+ $X=23.14 $Y=16.4925
Ri131	|I1/avC9	|I1/avC9#2	   10.9514	$mt1
+ $X=24.52 $Y=25.845
Ri132	|I1/avC9#2	|I1/avC9#3	    0.7421	$mt1
+ $X=23.47 $Y=26.35
Ri133	|I1/avC9#3	|I1/avC9#5	    0.4205	$mt1
+ $X=22.89 $Y=26.105
Ri135	|I1/avC9#3	|I1/avC9#8	    0.6222	$mt1
+ $X=22.89 $Y=26.605
Ri137	|I1/avC9#4	|I1/avC9#5	   15.0000	$mt1
+ $X=22.89 $Y=25.71
Ri138	|I1/avC9#7	|I1/avC9#8	    5.0000	$mt1
+ $X=22.89 $Y=27.2925
Ri139	|I1/avC8	|I1/avC8#2	   13.4361	$mt1
+ $X=23.315 $Y=30.54
Ri140	|I1/avC8#2	|I1/avC8#3	    0.7421	$mt1
+ $X=20.31 $Y=29.11
Ri141	|I1/avC8#3	|I1/avC8#5	    0.4205	$mt1
+ $X=19.73 $Y=28.865
Ri143	|I1/avC8#3	|I1/avC8#8	    0.6222	$mt1
+ $X=19.73 $Y=29.365
Ri145	|I1/avC8#4	|I1/avC8#5	   15.0000	$mt1
+ $X=19.73 $Y=28.47
Ri146	|I1/avC8#7	|I1/avC8#8	    5.0000	$mt1
+ $X=19.73 $Y=30.0525
Ri148	|I1/avC6#2	|I1/avC6#4	    1.8694	$mt1
+ $X=25.04 $Y=25.0245
Ri149	|I1/avC6#4	|I1/avC6#5	   15.0000	$mt1
+ $X=25.04 $Y=26.36
Ri150	|I1/avC6	|I1/avC6#2	   15.0000	$mt1
+ $X=25.54 $Y=23.95
Ri152	|I1/avC10#2	|I1/avC10#4	    1.3900	$mt1
+ $X=27.1255 $Y=31.46
Ri153	|I1/avC10#4	|I1/avC10#5	    1.2422	$mt1
+ $X=26.33 $Y=30.52
Ri154	|I1/avC10#5	|I1/avC10#7	6.458E-02	$mt1
+ $X=25.93 $Y=29.145
Ri156	|I1/avC10#4	|I1/avC10#10	    1.1100	$mt1
+ $X=25.93 $Y=31.46
Ri158	|I1/avC10#5	|I1/avC10#13	5.812E-02	$mt1
+ $X=26.69 $Y=29.145
Ri160	|I1/avC10	|I1/avC10#2	    5.0000	$mt1
+ $X=27.55 $Y=32.3825
Ri161	|I1/avC10#6	|I1/avC10#7	    5.0000	$mt1
+ $X=25.53 $Y=29.1425
Ri162	|I1/avC10#9	|I1/avC10#10	    5.0000	$mt1
+ $X=25.53 $Y=32.3825
Ri163	|I1/avC10#12	|I1/avC10#13	    5.0000	$mt1
+ $X=27.05 $Y=29.1425
Ri165	|I1/avC7#2	|I1/avC7#4	    1.8694	$mt1
+ $X=27.06 $Y=25.0245
Ri166	|I1/avC7#4	|I1/avC7#5	   15.0000	$mt1
+ $X=27.06 $Y=26.36
Ri167	|I1/avC7	|I1/avC7#2	   15.0000	$mt1
+ $X=27.56 $Y=23.95
Ri168	avC10	avC10#2	   10.4067	$mt1	$X=30.245 $Y=10.33
Ri169	avC10#2	avC10#3	    4.4894	$mt1
+ $X=28.905 $Y=10.33
Ri170	avC10#3	avC10#4	    0.3867	$mt1
+ $X=26.86 $Y=14.38
Ri171	avC10#4	avC10#5	    0.7421	$mt1
+ $X=25.99 $Y=14.38
Ri172	avC10#5	avC10#7	    0.4205	$mt1
+ $X=25.41 $Y=14.135
Ri174	avC10#5	avC10#10	    0.6222	$mt1
+ $X=25.41 $Y=14.635
Ri176	avC10#6	avC10#7	   15.0000	$mt1
+ $X=25.41 $Y=13.74
Ri177	avC10#9	avC10#10	    5.0000	$mt1
+ $X=25.41 $Y=15.3225
Ri178	avC9#12	avC9#13	   11.3133	$mt1
+ $X=30.925 $Y=7.37
Ri179	avC9#13	avC9#11	    4.0333	$mt1
+ $X=26.915 $Y=7.37
Ri181	|I4/avC7#2	|I4/avC7#4	    1.9874	$mt1
+ $X=31.86 $Y=10.398
Ri182	|I4/avC7#4	|I4/avC7#5	    5.0000	$mt1
+ $X=32.27 $Y=9.0025
Ri183	|I4/avC7	|I4/avC7#2	    5.0000	$mt1
+ $X=32.77 $Y=11.3525
Ri184	SUM#1	SUM#2	   13.0000	$mt1	$X=31.06 $Y=28.155
Ri185	SUM#2	SUM#3	    0.8369	$mt1	$X=28.18 $Y=28.155
Ri186	SUM#3	SUM#4	    0.8005	$mt1	$X=26.945 $Y=28.155
Ri187	SUM#4	SUM#6	    1.4933	$mt1	$X=25.685 $Y=28.155
Ri189	SUM#3	SUM#9	    0.6256	$mt1	$X=27.55 $Y=28.4325
Ri191	SUM#4	SUM#11	    0.6794	$mt1	$X=26.34 $Y=27.5975
Ri192	SUM#11	SUM#13	    0.9452	$mt1	$X=25.94 $Y=27.04
Ri194	SUM#11	SUM#16	    1.2252	$mt1	$X=26.95 $Y=27.04
Ri196	SUM#5	SUM#6	    5.0000	$mt1	$X=25.03 $Y=29.1425
Ri197	SUM#8	SUM#9	    5.0000	$mt1	$X=27.55 $Y=29.1425
Ri198	SUM#12	SUM#13	   15.0000	$mt1	$X=25.54 $Y=26.36
Ri199	SUM#15	SUM#16	   15.0000	$mt1	$X=27.56 $Y=26.36
Ri200	|I4/D_nmos1v_avC_7	|I4/D_nmos1v_avC_7#2	   10.4667	$mt1
+ $X=34.91 $Y=8.68
Ri201	|I4/D_nmos1v_avC_7#2	|I4/D_nmos1v_avC_7#4	    1.2021	$mt1
+ $X=33.665 $Y=8.68
Ri203	|I4/D_nmos1v_avC_7#4	|I4/D_nmos1v_avC_7#6	    1.4838	$mt1
+ $X=32.77 $Y=7.65
Ri204	|I4/D_nmos1v_avC_7#6	|I4/D_nmos1v_avC_7#8	    1.2252	$mt1
+ $X=32.165 $Y=6.73
Ri206	|I4/D_nmos1v_avC_7#6	|I4/D_nmos1v_avC_7#11	    1.2719	$mt1
+ $X=33.41 $Y=6.73
Ri208	|I4/D_nmos1v_avC_7#3	|I4/D_nmos1v_avC_7#4	    5.0000	$mt1
+ $X=32.77 $Y=9.0025
Ri209	|I4/D_nmos1v_avC_7#7	|I4/D_nmos1v_avC_7#8	   15.0000	$mt1
+ $X=31.56 $Y=6.04
Ri210	|I4/D_nmos1v_avC_7#10	|I4/D_nmos1v_avC_7#11	   15.0000	$mt1
+ $X=34.05 $Y=6.04
Ri213	VDD#2	VDD#5	    0.2491	$mt1	$X=35.99 $Y=10.7225
Ri214	VDD#5	VDD#6	    2.2183	$mt1	$X=35.99 $Y=11.5875
Ri215	VDD#6	VDD#7	    0.2439	$mt1	$X=33.92 $Y=12.4525
Ri216	VDD#7	VDD#8	    4.6103	$mt1	$X=33.92 $Y=16.12
Ri217	VDD#8	VDD#9	   21.2952	$mt1	$X=33.92 $Y=30.205
Ri218	VDD#9	VDD#10	    4.6539	$mt1	$X=23.165 $Y=37.315
Ri219	VDD#10	VDD#11	    0.3188	$mt1	$X=23.165 $Y=33.5375
Ri220	VDD#11	VDD#13	    1.2372	$mt1	$X=24.0675 $Y=33.275
Ri221	VDD#13	VDD#14	    0.1667	$mt1	$X=25.28 $Y=33.275
Ri222	VDD#14	VDD#15	    0.1667	$mt1	$X=25.28 $Y=33.275
Ri223	VDD#2	VDD#16	    0.5674	$mt1	$X=35.76 $Y=10.285
Ri224	VDD#16	VDD#17	    5.0000	$mt1	$X=35.76 $Y=9.6225
Ri225	VDD#6	VDD#18	    0.4272	$mt1	$X=33.595 $Y=12.245
Ri226	VDD#18	VDD#20	    1.8320	$mt1	$X=33.27 $Y=11.07
Ri227	VDD#20	VDD#21	    0.1667	$mt1	$X=32.52 $Y=9.895
Ri228	VDD#21	VDD#19	   15.1667	$mt1	$X=32.52 $Y=9.895
Ri229	VDD#8	VDD#22	    7.1509	$mt1	$X=28.53 $Y=19.58
Ri230	VDD#22	VDD#23	    0.7806	$mt1	$X=23.14 $Y=18.97
Ri231	VDD#23	VDD#25	    0.6532	$mt1	$X=23.14 $Y=17.8725
Ri234	VDD#25	VDD#28	    0.5982	$mt1	$X=22.64 $Y=17.155
Ri235	VDD#28	VDD#29	    5.0000	$mt1	$X=22.64 $Y=16.4925
Ri236	VDD#9	VDD#30	    1.1972	$mt1	$X=22.2625 $Y=40.83
Ri237	VDD#30	VDD#31	    7.9316	$mt1	$X=16.0525 $Y=40.83
Ri238	VDD#31	VDD#32	    0.3188	$mt1	$X=10.745 $Y=39.2275
Ri239	VDD#32	VDD#33	    3.7052	$mt1	$X=8.8925 $Y=38.965
Ri240	VDD#33	VDD#35	    0.2491	$mt1	$X=7.04 $Y=36.8425
Ri243	VDD#35	VDD#38	    0.5674	$mt1	$X=6.81 $Y=36.405
Ri244	VDD#38	VDD#39	    5.0000	$mt1	$X=6.81 $Y=35.7425
Ri245	VDD#11	VDD#40	    3.7052	$mt1	$X=21.3125 $Y=33.275
Ri246	VDD#40	VDD#42	    0.2491	$mt1	$X=19.46 $Y=31.1525
Ri249	VDD#42	VDD#45	    0.5674	$mt1	$X=19.23 $Y=30.715
Ri250	VDD#45	VDD#46	    5.0000	$mt1	$X=19.23 $Y=30.0525
Ri251	VDD#13	VDD#48	    0.5906	$mt1	$X=25.03 $Y=33.045
Ri253	VDD#48	VDD#50	    1.5682	$mt1	$X=25.03 $Y=30.9925
Ri255	VDD#50	VDD#53	    0.2533	$mt1	$X=25.28 $Y=30.035
Ri256	VDD#53	VDD#54	    2.5280	$mt1	$X=23.795 $Y=30.035
Ri257	VDD#54	VDD#56	    0.2491	$mt1	$X=22.62 $Y=28.3925
Ri260	VDD#56	VDD#59	    0.5674	$mt1	$X=22.39 $Y=27.955
Ri261	VDD#59	VDD#60	    5.0000	$mt1	$X=22.39 $Y=27.2925
Ri262	VDD#15	VDD#62	    1.0133	$mt1	$X=26.308 $Y=33.275
Ri263	VDD#62	VDD#63	    0.1667	$mt1	$X=27.3 $Y=33.275
Ri264	VDD#63	VDD#64	    0.1667	$mt1	$X=27.3 $Y=33.275
Ri265	VDD#62	VDD#65	    0.5982	$mt1	$X=27.05 $Y=33.045
Ri266	VDD#65	VDD#66	    5.0000	$mt1	$X=27.05 $Y=32.3825
Ri267	VDD#18	VDD#68	    0.3303	$mt1	$X=33.05 $Y=12.245
Ri268	VDD#68	VDD#69	    0.1667	$mt1	$X=32.52 $Y=12.245
Ri269	VDD#69	VDD#70	    0.1667	$mt1	$X=32.52 $Y=12.245
Ri270	VDD#70	VDD#71	    0.5982	$mt1	$X=32.27 $Y=12.015
Ri271	VDD#71	VDD#72	    5.0000	$mt1	$X=32.27 $Y=11.3525
Ri272	VDD#22	VDD#73	    9.0550	$mt1	$X=16.93 $Y=19.58
Ri273	VDD#73	VDD#75	    0.6532	$mt1	$X=10.72 $Y=17.8725
Ri276	VDD#75	VDD#78	    0.5982	$mt1	$X=10.22 $Y=17.155
Ri277	VDD#78	VDD#79	    5.0000	$mt1	$X=10.22 $Y=16.4925
Ri278	VDD#25	VDD#80	    1.8000	$mt1	$X=21.433 $Y=17.385
Ri279	VDD#80	VDD#82	    0.1667	$mt1	$X=19.94 $Y=17.385
Ri280	VDD#80	VDD#83	    0.1667	$mt1	$X=19.94 $Y=17.385
Ri281	VDD#83	VDD#85	    0.5906	$mt1	$X=19.69 $Y=17.155
Ri283	VDD#25	VDD#87	    1.8014	$mt1	$X=24.17 $Y=17.385
Ri284	VDD#87	VDD#89	    0.2491	$mt1	$X=25.14 $Y=16.4225
Ri287	VDD#89	VDD#92	    0.5674	$mt1	$X=24.91 $Y=15.985
Ri288	VDD#92	VDD#93	    5.0000	$mt1	$X=24.91 $Y=15.3225
Ri289	VDD#30	VDD	    1.1873	$mt1	$X=21.36 $Y=41.745
Ri290	VDD#32	VDD#95	    1.2372	$mt1	$X=11.6475 $Y=38.965
Ri291	VDD#95	VDD#96	    0.1667	$mt1	$X=12.86 $Y=38.965
Ri292	VDD#95	VDD#98	    0.5906	$mt1	$X=12.61 $Y=38.735
Ri294	VDD#98	VDD#100	    1.5682	$mt1	$X=12.61 $Y=36.6825
Ri296	VDD#100	VDD#103	    0.2533	$mt1
+ $X=12.86 $Y=35.725
Ri297	VDD#103	VDD#104	    2.5280	$mt1
+ $X=11.375 $Y=35.725
Ri298	VDD#104	VDD#106	    0.2491	$mt1
+ $X=10.2 $Y=34.0825
Ri301	VDD#106	VDD#109	    0.5674	$mt1
+ $X=9.97 $Y=33.645
Ri302	VDD#109	VDD#110	    5.0000	$mt1
+ $X=9.97 $Y=32.9825
Ri303	VDD#64	VDD#111	    3.0561	$mt1	$X=27.88 $Y=33.275
Ri304	VDD#111	VDD#113	    0.1667	$mt1
+ $X=27.3 $Y=30.035
Ri305	VDD#113	VDD#112	   15.3333	$mt1
+ $X=27.3 $Y=30.035
Ri306	VDD#75	VDD#114	    1.8000	$mt1	$X=9.013 $Y=17.385
Ri307	VDD#114	VDD#116	    0.1667	$mt1
+ $X=7.52 $Y=17.385
Ri308	VDD#114	VDD#117	    0.1667	$mt1
+ $X=7.52 $Y=17.385
Ri309	VDD#117	VDD#119	    0.5906	$mt1
+ $X=7.27 $Y=17.155
Ri311	VDD#75	VDD#121	    1.8014	$mt1	$X=11.75 $Y=17.385
Ri312	VDD#121	VDD#123	    0.2491	$mt1
+ $X=12.72 $Y=16.4225
Ri315	VDD#123	VDD#126	    0.5674	$mt1
+ $X=12.49 $Y=15.985
Ri316	VDD#126	VDD#127	    5.0000	$mt1
+ $X=12.49 $Y=15.3225
Ri317	VDD#96	VDD#128	    0.1667	$mt1	$X=12.86 $Y=38.965
Ri318	VDD#128	VDD#130	    1.0133	$mt1
+ $X=13.888 $Y=38.965
Ri319	VDD#130	VDD#131	    0.1667	$mt1
+ $X=14.88 $Y=38.965
Ri320	VDD#131	VDD#132	    0.1667	$mt1
+ $X=14.88 $Y=38.965
Ri321	VDD#130	VDD#133	    0.5982	$mt1
+ $X=14.63 $Y=38.735
Ri322	VDD#133	VDD#134	    5.0000	$mt1
+ $X=14.63 $Y=38.0725
Ri323	VDD#132	VDD#135	    3.0561	$mt1
+ $X=15.46 $Y=38.965
Ri324	VDD#135	VDD#137	    0.1667	$mt1
+ $X=14.88 $Y=35.725
Ri325	VDD#137	VDD#136	   15.3333	$mt1
+ $X=14.88 $Y=35.725
Ri326	VDD#1	VDD#2	   15.0000	$mt1	$X=36.26 $Y=10.515
Ri327	VDD#1	VDD#2	   15.0000	$mt1	$X=35.76 $Y=10.515
Ri328	VDD#12	VDD#13	   15.0000	$mt1	$X=25.03 $Y=33.275
Ri329	VDD#12	VDD#15	   15.0000	$mt1	$X=25.53 $Y=33.275
Ri330	VDD#19	VDD#20	   15.0000	$mt1	$X=32.77 $Y=9.895
Ri331	VDD#24	VDD#25	   15.0000	$mt1	$X=23.14 $Y=17.385
Ri332	VDD#24	VDD#25	   15.0000	$mt1	$X=22.64 $Y=17.385
Ri333	VDD#34	VDD#35	   15.0000	$mt1	$X=7.31 $Y=36.635
Ri334	VDD#34	VDD#35	   15.0000	$mt1	$X=6.81 $Y=36.635
Ri335	VDD#41	VDD#42	   15.0000	$mt1	$X=19.73 $Y=30.945
Ri336	VDD#41	VDD#42	   15.0000	$mt1	$X=19.23 $Y=30.945
Ri337	VDD#47	VDD#48	    5.0000	$mt1	$X=25.03 $Y=32.3825
Ri338	VDD#51	VDD#50	   15.0000	$mt1	$X=25.53 $Y=30.035
Ri339	VDD#51	VDD#53	   15.0000	$mt1	$X=25.03 $Y=30.035
Ri340	VDD#55	VDD#56	   15.0000	$mt1	$X=22.89 $Y=28.185
Ri341	VDD#55	VDD#56	   15.0000	$mt1	$X=22.39 $Y=28.185
Ri342	VDD#61	VDD#62	   15.0000	$mt1	$X=27.05 $Y=33.275
Ri343	VDD#61	VDD#64	   15.0000	$mt1	$X=27.55 $Y=33.275
Ri344	VDD#67	VDD#68	   15.0000	$mt1	$X=32.77 $Y=12.245
Ri345	VDD#67	VDD#70	   15.0000	$mt1	$X=32.27 $Y=12.245
Ri346	VDD#74	VDD#75	   15.0000	$mt1	$X=10.72 $Y=17.385
Ri347	VDD#74	VDD#75	   15.0000	$mt1	$X=10.22 $Y=17.385
Ri348	VDD#81	VDD#82	   15.0000	$mt1	$X=20.19 $Y=17.385
Ri349	VDD#81	VDD#83	   15.0000	$mt1	$X=19.69 $Y=17.385
Ri350	VDD#84	VDD#85	    5.0000	$mt1	$X=19.69 $Y=16.4925
Ri351	VDD#88	VDD#89	   15.0000	$mt1	$X=25.41 $Y=16.215
Ri352	VDD#88	VDD#89	   15.0000	$mt1	$X=24.91 $Y=16.215
Ri353	VDD#94	VDD#95	   15.0000	$mt1	$X=12.61 $Y=38.965
Ri354	VDD#97	VDD#98	    5.0000	$mt1	$X=12.61 $Y=38.0725
Ri355	VDD#101	VDD#100	   15.0000	$mt1
+ $X=13.11 $Y=35.725
Ri356	VDD#101	VDD#103	   15.0000	$mt1
+ $X=12.61 $Y=35.725
Ri357	VDD#105	VDD#106	   15.0000	$mt1
+ $X=10.47 $Y=33.875
Ri358	VDD#105	VDD#106	   15.0000	$mt1
+ $X=9.97 $Y=33.875
Ri359	VDD#112	VDD#113	   15.0000	$mt1
+ $X=27.55 $Y=30.035
Ri360	VDD#115	VDD#116	   15.0000	$mt1
+ $X=7.77 $Y=17.385
Ri361	VDD#115	VDD#117	   15.0000	$mt1
+ $X=7.27 $Y=17.385
Ri362	VDD#118	VDD#119	    5.0000	$mt1
+ $X=7.27 $Y=16.4925
Ri363	VDD#122	VDD#123	   15.0000	$mt1
+ $X=12.99 $Y=16.215
Ri364	VDD#122	VDD#123	   15.0000	$mt1
+ $X=12.49 $Y=16.215
Ri365	VDD#94	VDD#128	   15.0000	$mt1	$X=13.11 $Y=38.965
Ri366	VDD#129	VDD#130	   15.0000	$mt1
+ $X=14.63 $Y=38.965
Ri367	VDD#129	VDD#132	   15.0000	$mt1
+ $X=15.13 $Y=38.965
Ri368	VDD#136	VDD#137	   15.0000	$mt1
+ $X=15.13 $Y=35.725
Ri371	GND#2	GND#5	    0.2258	$mt1	$X=35.99 $Y=7.24
Ri372	GND#5	GND#6	    2.4550	$mt1	$X=35.99 $Y=6.215
Ri373	GND#6	GND#7	    0.4206	$mt1	$X=33.92 $Y=5.04
Ri374	GND#7	GND#8	    8.3083	$mt1	$X=33.92 $Y=3.815
Ri375	GND#8	GND#9	    1.2005	$mt1	$X=22.265 $Y=2.93
Ri376	GND#9	GND#10	    7.0672	$mt1	$X=16.055 $Y=2.93
Ri377	GND#10	GND#11	   19.7533	$mt1	$X=8.035 $Y=2.93
Ri378	GND#11	GND#12	    4.2206	$mt1	$X=10.745 $Y=25.01
Ri379	GND#12	GND#13	    0.2821	$mt1	$X=10.745 $Y=28.435
Ri380	GND#13	GND#14	    0.3541	$mt1	$X=10.4725 $Y=28.67
Ri381	GND#14	GND#15	    5.0683	$mt1	$X=8.62 $Y=28.67
Ri382	GND#15	GND#16	    0.2258	$mt1	$X=7.04 $Y=33.36
Ri385	GND#2	GND#19	    0.3791	$mt1	$X=35.76 $Y=7.66
Ri386	GND#19	GND#20	   15.0000	$mt1	$X=35.76 $Y=8.04
Ri387	GND#6	GND#21	    0.2405	$mt1	$X=33.735 $Y=5.38
Ri388	GND#21	GND#23	    2.0616	$mt1	$X=32.305 $Y=5.38
Ri390	GND#8	GND#25	    4.9473	$mt1	$X=23.17 $Y=6.665
Ri391	GND#25	GND#26	    0.4288	$mt1	$X=23.17 $Y=10.745
Ri392	GND#26	GND#28	    1.8719	$mt1	$X=22.115 $Y=11.09
Ri394	GND#9	GND	    1.8806	$mt1	$X=21.36 $Y=1.495
Ri395	GND#10	GND#30	    4.9473	$mt1	$X=10.75 $Y=6.665
Ri396	GND#30	GND#31	    0.4288	$mt1	$X=10.75 $Y=10.745
Ri397	GND#31	GND#33	    1.8719	$mt1	$X=9.695 $Y=11.09
Ri399	GND#11	GND#35	    8.7016	$mt1	$X=16.955 $Y=21.82
Ri400	GND#35	GND#36	    0.2821	$mt1	$X=23.165 $Y=22.745
Ri401	GND#36	GND#37	    0.3541	$mt1	$X=22.8925 $Y=22.98
Ri402	GND#37	GND#38	    5.0683	$mt1	$X=21.04 $Y=22.98
Ri403	GND#38	GND#39	    0.2258	$mt1	$X=19.46 $Y=27.67
Ri406	GND#39	GND#42	    0.3791	$mt1	$X=19.23 $Y=28.09
Ri407	GND#42	GND#43	   15.0000	$mt1	$X=19.23 $Y=28.47
Ri408	GND#13	GND#44	    1.2408	$mt1	$X=11.6825 $Y=28.67
Ri409	GND#44	GND#46	    0.6139	$mt1	$X=12.62 $Y=29.08
Ri411	GND#14	GND#48	    1.1273	$mt1	$X=10.2 $Y=29.54
Ri412	GND#48	GND#49	    0.2258	$mt1	$X=10.2 $Y=30.6
Ri415	GND#49	GND#52	    0.3791	$mt1	$X=9.97 $Y=31.02
Ri416	GND#52	GND#53	   15.0000	$mt1	$X=9.97 $Y=31.4
Ri417	GND#16	GND#54	    0.3791	$mt1	$X=6.81 $Y=33.78
Ri418	GND#54	GND#55	   15.0000	$mt1	$X=6.81 $Y=34.16
Ri419	GND#21	GND#57	    0.4073	$mt1	$X=33.55 $Y=5.635
Ri421	GND#26	GND#59	    2.3786	$mt1	$X=24.155 $Y=11.09
Ri422	GND#59	GND#60	    0.2258	$mt1	$X=25.14 $Y=12.94
Ri425	GND#60	GND#63	    0.3791	$mt1	$X=24.91 $Y=13.36
Ri426	GND#63	GND#64	   15.0000	$mt1	$X=24.91 $Y=13.74
Ri427	GND#31	GND#65	    2.3786	$mt1	$X=11.735 $Y=11.09
Ri428	GND#65	GND#66	    0.2258	$mt1	$X=12.72 $Y=12.94
Ri431	GND#66	GND#69	    0.3791	$mt1	$X=12.49 $Y=13.36
Ri432	GND#69	GND#70	   15.0000	$mt1	$X=12.49 $Y=13.74
Ri433	GND#36	GND#71	    1.2408	$mt1	$X=24.1025 $Y=22.98
Ri434	GND#71	GND#73	    0.6139	$mt1	$X=25.04 $Y=23.39
Ri436	GND#37	GND#75	    1.1273	$mt1	$X=22.62 $Y=23.85
Ri437	GND#75	GND#76	    0.2258	$mt1	$X=22.62 $Y=24.91
Ri440	GND#76	GND#79	    0.3791	$mt1	$X=22.39 $Y=25.33
Ri441	GND#79	GND#80	   15.0000	$mt1	$X=22.39 $Y=25.71
Ri442	GND#44	GND#82	    1.9550	$mt1	$X=13.63 $Y=28.67
Ri444	GND#71	GND#85	    1.9550	$mt1	$X=26.05 $Y=22.98
Ri446	GND#1	GND#2	   15.0000	$mt1	$X=36.26 $Y=7.43
Ri447	GND#1	GND#2	   15.0000	$mt1	$X=35.76 $Y=7.43
Ri448	GND#1	GND#16	   15.0000	$mt1	$X=7.31 $Y=33.55
Ri449	GND#1	GND#16	   15.0000	$mt1	$X=6.81 $Y=33.55
Ri450	GND#22	GND#23	   15.0000	$mt1	$X=31.06 $Y=6.04
Ri451	GND#27	GND#28	   15.0000	$mt1	$X=21.06 $Y=11.85
Ri452	GND#32	GND#33	   15.0000	$mt1	$X=8.64 $Y=11.85
Ri453	GND#1	GND#39	   15.0000	$mt1	$X=19.73 $Y=27.86
Ri454	GND#1	GND#39	   15.0000	$mt1	$X=19.23 $Y=27.86
Ri455	GND#45	GND#46	   15.0000	$mt1	$X=12.62 $Y=29.64
Ri456	GND#1	GND#49	   15.0000	$mt1	$X=10.47 $Y=30.79
Ri457	GND#1	GND#49	   15.0000	$mt1	$X=9.97 $Y=30.79
Ri458	GND#56	GND#57	   15.0000	$mt1	$X=33.55 $Y=6.04
Ri459	GND#1	GND#60	   15.0000	$mt1	$X=25.41 $Y=13.13
Ri460	GND#1	GND#60	   15.0000	$mt1	$X=24.91 $Y=13.13
Ri461	GND#1	GND#66	   15.0000	$mt1	$X=12.99 $Y=13.13
Ri462	GND#1	GND#66	   15.0000	$mt1	$X=12.49 $Y=13.13
Ri463	GND#72	GND#73	   15.0000	$mt1	$X=25.04 $Y=23.95
Ri464	GND#1	GND#76	   15.0000	$mt1	$X=22.89 $Y=25.1
Ri465	GND#1	GND#76	   15.0000	$mt1	$X=22.39 $Y=25.1
Ri466	GND#81	GND#82	   15.0000	$mt1	$X=14.64 $Y=29.64
Ri467	GND#84	GND#85	   15.0000	$mt1	$X=27.06 $Y=23.95
Ri468	Cout	Cout#1	    3.1733	$mt1	$X=40.2805 $Y=8.68
Ri469	Cout#1	Cout#2	    0.3200	$mt1	$X=37.66 $Y=8.68
Ri470	Cout#2	Cout#3	    0.7421	$mt1	$X=36.84 $Y=8.68
Ri471	Cout#3	Cout#5	    0.4205	$mt1	$X=36.26 $Y=8.435
Ri473	Cout#3	Cout#8	    0.6222	$mt1	$X=36.26 $Y=8.935
Ri475	Cout#4	Cout#5	   15.0000	$mt1	$X=36.26 $Y=8.04
Ri476	Cout#7	Cout#8	    5.0000	$mt1	$X=36.26 $Y=9.6225
Ri477	SUM	SUM#18	    5.3733	$mt1	$X=38.6305 $Y=28.155
Rj1	B#1	B#2	  112.0871	$poly	$X=5.335 $Y=14.04
Rj2	A#1	A#2	 1898.6744	$poly	$X=4.74 $Y=14.67
Rj3	A#9	A#10	   24.8441	$poly	$X=7.06 $Y=35.05
Rj4	A#10	A#8	   61.3880	$poly	$X=6.7 $Y=34.8
Rj5	A#10	A#11	   23.7330	$poly	$X=7.06 $Y=34.56
Rj6	B#10	B#3	   77.0871	$poly	$X=7.07 $Y=32.04
Rj7	A#14	A#15	  137.0587	$poly	$X=8.89 $Y=14.39
Rj8	A#15	A#16	   53.4049	$poly	$X=7.52 $Y=15.56
Rj9	A#15	A#12	   27.7133	$poly	$X=7.52 $Y=14.855
Rj10	B#13	B#14	   24.8441	$poly	$X=10.22 $Y=32.29
Rj11	B#14	B#11	   61.3880	$poly	$X=9.86 $Y=32.04
Rj12	B#14	B#15	   23.7330	$poly	$X=10.22 $Y=31.8
Rj13	B#16	B#17	  258.2558	$poly	$X=10.47 $Y=14.505
Rj14	B#17	B#8	  234.3640	$poly	$X=8.185 $Y=12.92
Rj15	B#17	B#18	   45.1971	$poly	$X=8.89 $Y=12.85
Rj16	|I2/D_nmos1v_avC_9#14	|I2/D_nmos1v_avC_9#15	   24.8441	$poly
+ $X=12.74 $Y=14.63
Rj17	|I2/D_nmos1v_avC_9#15	|I2/D_nmos1v_avC_9	   61.3880	$poly
+ $X=12.38 $Y=14.38
Rj18	|I2/D_nmos1v_avC_9#15	|I2/D_nmos1v_avC_9#16	   23.7330	$poly
+ $X=12.74 $Y=14.14
Rj19	A#17	A#18	  316.0653	$poly	$X=12.87 $Y=32.47
Rj20	A#18	A#3	  562.3640	$poly	$X=11.95 $Y=37.28
Rj21	A#18	A#19	   69.1178	$poly	$X=12.02 $Y=37.12
Rj22	|I0/avC8#10	|I0/avC8#11	  130.9869	$poly
+ $X=14.89 $Y=32.835
Rj23	|I0/avC8#11	|I0/avC8	  393.9753	$poly
+ $X=13.69 $Y=34.885
Rj24	|I0/avC8#11	|I0/avC8#12	   88.2091	$poly
+ $X=13.295 $Y=33.5
Rj25	avC8	avC8#2	  786.0871	$poly	$X=15.47 $Y=18.575
Rj26	|I0/avC9#10	|I0/avC9#11	   61.1821	$poly
+ $X=14.89 $Y=30.395
Rj27	|I0/avC9#11	|I0/avC9	  268.3605	$poly
+ $X=13.51 $Y=31.03
Rj28	|I0/avC9#11	|I0/avC9#12	  257.7100	$poly
+ $X=15.28 $Y=31.03
Rj29	B#19	B#20	  717.2082	$poly	$X=14.88 $Y=37.105
Rj30	B#20	B#7	  665.7767	$poly	$X=9.505 $Y=28.91
Rj31	B#20	B#21	   26.3083	$poly	$X=12.87 $Y=28.98
Rj32	Cin#2	Cin#3	  837.0871	$poly	$X=16.57 $Y=18.25
Rj33	Cin#3	Cin#1	 1854.6746	$poly	$X=16.57 $Y=10.545
Rj34	avC8#25	avC8#26	   24.8441	$poly
+ $X=19.48 $Y=29.36
Rj35	avC8#26	avC8#14	   61.3880	$poly
+ $X=19.12 $Y=29.11
Rj36	avC8#26	avC8#27	   23.7330	$poly
+ $X=19.48 $Y=28.87
Rj37	Cin#10	Cin#4	   77.0871	$poly	$X=19.49 $Y=26.35
Rj38	avC8#30	avC8#31	  137.0587	$poly
+ $X=21.31 $Y=14.39
Rj39	avC8#31	avC8#32	   53.4049	$poly
+ $X=19.94 $Y=15.56
Rj40	avC8#31	avC8#28	   27.7133	$poly
+ $X=19.94 $Y=14.855
Rj41	Cin#13	Cin#14	   24.8441	$poly	$X=22.64 $Y=26.6
Rj42	Cin#14	Cin#11	   61.3880	$poly	$X=22.28 $Y=26.35
Rj43	Cin#14	Cin#15	   23.7330	$poly	$X=22.64 $Y=26.11
Rj44	Cin#16	Cin#17	  258.2558	$poly	$X=22.89 $Y=14.505
Rj45	Cin#17	Cin#8	  234.3640	$poly	$X=20.605 $Y=12.92
Rj46	Cin#17	Cin#18	   45.1971	$poly	$X=21.31 $Y=12.85
Rj47	avC9#11	avC9	  130.0871	$poly	$X=23.215 $Y=7.37
Rj48	|I3/D_nmos1v_avC_9#14	|I3/D_nmos1v_avC_9#15	   24.8441	$poly
+ $X=25.16 $Y=14.63
Rj49	|I3/D_nmos1v_avC_9#15	|I3/D_nmos1v_avC_9	   61.3880	$poly
+ $X=24.8 $Y=14.38
Rj50	|I3/D_nmos1v_avC_9#15	|I3/D_nmos1v_avC_9#16	   23.7330	$poly
+ $X=25.16 $Y=14.14
Rj51	avC8#33	avC8#34	  316.0653	$poly
+ $X=25.29 $Y=26.78
Rj52	avC8#34	avC8#3	  562.3640	$poly	$X=24.37 $Y=31.59
Rj53	avC8#34	avC8#35	   69.1178	$poly
+ $X=24.44 $Y=31.43
Rj54	|I1/avC8#10	|I1/avC8#11	  130.9869	$poly
+ $X=27.31 $Y=27.145
Rj55	|I1/avC8#11	|I1/avC8	  393.9753	$poly
+ $X=26.11 $Y=29.195
Rj56	|I1/avC8#11	|I1/avC8#12	   88.2091	$poly
+ $X=25.715 $Y=27.81
Rj57	|I1/avC9#10	|I1/avC9#11	   61.1821	$poly
+ $X=27.31 $Y=24.705
Rj58	|I1/avC9#11	|I1/avC9	  268.3605	$poly
+ $X=25.93 $Y=25.34
Rj59	|I1/avC9#11	|I1/avC9#12	  257.7100	$poly
+ $X=27.7 $Y=25.34
Rj60	Cin#19	Cin#20	  717.2082	$poly	$X=27.3 $Y=31.415
Rj61	Cin#20	Cin#7	  665.7767	$poly	$X=21.925 $Y=23.22
Rj62	Cin#20	Cin#21	   26.3083	$poly	$X=25.29 $Y=23.29
Rj63	avC10#12	avC10#13	   96.0340	$poly
+ $X=32.52 $Y=10.635
Rj64	avC10#13	avC10	   65.5037	$poly	$X=30.945 $Y=10.33
Rj65	avC10#13	avC10#14	  224.0563	$poly
+ $X=31.31 $Y=10.255
Rj66	avC9#14	avC9#15	  132.8311	$poly
+ $X=33.8 $Y=6.775
Rj67	avC9#15	avC9#12	   50.2528	$poly
+ $X=32.23 $Y=7.37
Rj68	avC9#15	avC9#16	   60.6951	$poly
+ $X=32.52 $Y=7.45
Rj69	SUM#18	SUM#1	  124.0871	$poly	$X=33.955 $Y=28.155
Rj70	|I4/D_nmos1v_avC_7#13	|I4/D_nmos1v_avC_7#14	   24.8441	$poly
+ $X=36.01 $Y=8.93
Rj71	|I4/D_nmos1v_avC_7#14	|I4/D_nmos1v_avC_7	   61.3880	$poly
+ $X=35.65 $Y=8.68
Rj72	|I4/D_nmos1v_avC_7#14	|I4/D_nmos1v_avC_7#15	   23.7330	$poly
+ $X=36.01 $Y=8.44
*
*       CAPACITOR CARDS
*
*
C1	VDD	GND	8.766E-17	$X=21.358 $Y=42.2285
C2	A	GND	1.466E-16	$X=0.9175 $Y=35.5955
C3	B	GND	1.024E-16	$X=0.594 $Y=21.357
C4	Cin	GND	1.857E-16	$X=1.203 $Y=7.1175
C5	Cout	GND	1.880E-16	$X=41.497 $Y=8.6775
C6	SUM	GND	3.011E-16	$X=40.672 $Y=28.1495
C7	avC9	GND	6.139E-16	$X=20.9485 $Y=7.3685
C8	avC8	GND	7.954E-16	$X=15.8315 $Y=23.142
C9	avC10	GND	8.520E-17	$X=30.5015 $Y=10.3275
C10	|I0/avC8	GND	4.645E-16	$X=12.069 $Y=36.2225
C11	|I0/avC9	GND	2.246E-16	$X=12.4795 $Y=31.165
C12	|I1/avC8	GND	4.645E-16	$X=24.487 $Y=30.5335
C13	|I1/avC9	GND	2.246E-16	$X=24.898 $Y=25.4755
C14	|I4/D_nmos1v_avC_7	GND	9.405E-17	$X=35.2 $Y=8.6775
C15	|I3/D_nmos1v_avC_9	GND	9.409E-17	$X=24.35 $Y=14.377
C16	|I2/D_nmos1v_avC_9	GND	9.409E-17	$X=11.931 $Y=14.377
C17	A#9	GND	1.014E-16	$X=7.0595 $Y=35.728
C18	A#16	GND	1.308E-16	$X=7.52 $Y=16.359
C19	B#13	GND	1.021E-16	$X=10.2195 $Y=32.9685
C20	B#16	GND	3.231E-16	$X=10.4725 $Y=15.472
C21	|I2/D_nmos1v_avC_9#14	GND	1.020E-16	$X=12.739 $Y=15.31
C22	|I0/avC8#12	GND	1.730E-16	$X=12.86 $Y=34.557
C23	A#19	GND	1.525E-16	$X=12.86 $Y=37.8815
C24	|I0/avC9#12	GND	3.999E-16	$X=15.2765 $Y=33.892
C25	B#19	GND	7.839E-16	$X=15.4865 $Y=36.525
C26	avC8#25	GND	1.014E-16	$X=19.4785 $Y=30.0385
C27	avC8#32	GND	1.308E-16	$X=19.939 $Y=16.359
C28	Cin#13	GND	1.021E-16	$X=22.6385 $Y=27.279
C29	Cin#16	GND	3.231E-16	$X=22.89 $Y=15.472
C30	|I3/D_nmos1v_avC_9#14	GND	1.020E-16	$X=25.158 $Y=15.31
C31	|I1/avC8#12	GND	1.730E-16	$X=25.2785 $Y=28.8675
C32	avC8#35	GND	1.525E-16	$X=25.2785 $Y=32.1925
C33	|I1/avC9#12	GND	3.950E-16	$X=27.694 $Y=28.2035
C34	Cin#19	GND	7.820E-16	$X=27.901 $Y=30.838
C35	avC9#16	GND	1.437E-16	$X=32.5175 $Y=8.8175
C36	avC10#12	GND	1.771E-16	$X=32.5175 $Y=11.1245
C37	|I4/D_nmos1v_avC_7#13	GND	1.021E-16	$X=36.007 $Y=9.6105
C38	A#11	GND	7.794E-17	$X=7.0585 $Y=34.161
C39	B#18	GND	1.085E-16	$X=8.889 $Y=11.9595
C40	A#14	GND	2.179E-16	$X=8.8905 $Y=14.177
C41	B#15	GND	7.787E-17	$X=10.2185 $Y=31.4015
C42	|I2/D_nmos1v_avC_9#16	GND	7.796E-17	$X=12.7385 $Y=13.742
C43	B#21	GND	8.519E-17	$X=12.8685 $Y=29.609
C44	A#17	GND	3.761E-16	$X=12.4125 $Y=32.7625
C45	|I0/avC9#10	GND	1.207E-16	$X=14.8885 $Y=29.818
C46	|I0/avC8#10	GND	1.856E-16	$X=14.8895 $Y=32.507
C47	avC8#27	GND	7.794E-17	$X=19.478 $Y=28.4715
C48	Cin#18	GND	1.085E-16	$X=21.308 $Y=11.9595
C49	avC8#30	GND	2.180E-16	$X=21.309 $Y=14.177
C50	Cin#15	GND	7.787E-17	$X=22.638 $Y=25.7115
C51	|I3/D_nmos1v_avC_9#16	GND	7.796E-17	$X=25.1575 $Y=13.742
C52	Cin#21	GND	8.519E-17	$X=25.288 $Y=23.919
C53	avC8#33	GND	3.761E-16	$X=24.8295 $Y=27.0735
C54	|I1/avC9#10	GND	1.207E-16	$X=27.308 $Y=24.1285
C55	|I1/avC8#10	GND	1.856E-16	$X=27.308 $Y=26.8175
C56	avC10#14	GND	2.961E-16	$X=31.308 $Y=6.9555
C57	avC9#14	GND	2.089E-16	$X=33.7975 $Y=6.563
C58	|I4/D_nmos1v_avC_7#15	GND	7.798E-17	$X=36.007 $Y=8.0425
C59	A#2	GND	1.043E-15	$X=3.6205 $Y=29.4845
C60	Cin#1	GND	1.032E-15	$X=6.5635 $Y=7.119
C61	B#2	GND	4.449E-16	$X=3.728 $Y=14.6415
C62	B#1	GND	1.301E-16	$X=5.788 $Y=14.037
C63	A#1	GND	9.467E-16	$X=5.4215 $Y=14.666
C64	B#7	GND	4.657E-16	$X=6.988 $Y=29.1345
C65	A#8	GND	8.967E-17	$X=6.251 $Y=34.796
C66	A#3	GND	3.294E-16	$X=7.018 $Y=37.3935
C67	B#3	GND	1.452E-16	$X=6.5665 $Y=32.036
C68	B#10	GND	1.246E-16	$X=7.61 $Y=32.036
C69	B#8	GND	1.770E-16	$X=7.456 $Y=13.7745
C70	A#12	GND	8.162E-17	$X=7.455 $Y=14.693
C71	B#11	GND	9.403E-17	$X=9.411 $Y=32.0365
C72	avC8#2	GND	5.429E-16	$X=15.9065 $Y=15.612
C73	Cin#3	GND	1.371E-15	$X=16.8745 $Y=13.346
C74	Cin#2	GND	5.619E-16	$X=16.5715 $Y=21.8615
C75	Cin#7	GND	4.657E-16	$X=19.406 $Y=23.4455
C76	avC8#14	GND	8.967E-17	$X=18.6705 $Y=29.1065
C77	avC8#3	GND	3.294E-16	$X=19.436 $Y=31.704
C78	Cin#4	GND	1.452E-16	$X=18.986 $Y=26.346
C79	Cin#10	GND	1.246E-16	$X=20.029 $Y=26.3465
C80	Cin#8	GND	1.770E-16	$X=19.875 $Y=13.7745
C81	avC8#28	GND	8.160E-17	$X=19.8745 $Y=14.693
C82	Cin#11	GND	9.403E-17	$X=21.8305 $Y=26.3465
C83	avC9#11	GND	3.057E-16	$X=24.4165 $Y=7.368
C84	avC9#12	GND	1.410E-16	$X=31.6915 $Y=7.3675
C85	SUM#1	GND	2.514E-16	$X=32.9665 $Y=28.15
C86	SUM#18	GND	3.722E-16	$X=35.3835 $Y=28.149
C87	VDD#34	GND	3.377E-17	$X=7.0685 $Y=36.216
C88	VDD#115	GND	3.377E-17	$X=7.528 $Y=16.9735
C89	VDD#105	GND	3.377E-17	$X=10.227 $Y=33.457
C90	VDD#74	GND	3.374E-17	$X=10.477 $Y=16.9735
C91	VDD#122	GND	3.377E-17	$X=12.746 $Y=15.804
C92	VDD#101	GND	4.695E-17	$X=12.866 $Y=35.306
C93	VDD#94	GND	2.554E-17	$X=12.866 $Y=38.545
C94	VDD#136	GND	3.895E-17	$X=14.8855 $Y=35.306
C95	VDD#129	GND	2.499E-17	$X=14.8855 $Y=38.545
C96	VDD#41	GND	3.377E-17	$X=19.4835 $Y=30.528
C97	VDD#81	GND	3.377E-17	$X=19.9435 $Y=16.9735
C98	VDD#55	GND	3.377E-17	$X=22.642 $Y=27.769
C99	VDD#24	GND	3.374E-17	$X=22.892 $Y=16.9735
C100	VDD#88	GND	3.377E-17	$X=25.161 $Y=15.804
C101	VDD#51	GND	4.695E-17	$X=25.281 $Y=29.6185
C102	VDD#12	GND	2.554E-17	$X=25.281 $Y=32.857
C103	VDD#112	GND	3.895E-17	$X=27.3005 $Y=29.6185
C104	VDD#61	GND	2.499E-17	$X=27.3005 $Y=32.857
C105	VDD#19	GND	4.890E-17	$X=32.5185 $Y=9.4865
C106	VDD#67	GND	2.497E-17	$X=32.5185 $Y=11.8355
C107	VDD#1	GND	3.377E-17	$X=36.007 $Y=10.106
C108	|I4/D_nmos1v_avC_7#7	GND	3.669E-18	$X=31.5375 $Y=6.0375
C109	B#5	GND	4.948E-16	$X=2.3265 $Y=29.2735
C110	A#5	GND	9.245E-17	$X=4.5395 $Y=36.696
C111	A#7	GND	1.101E-16	$X=5.329 $Y=35.201
C112	B#9	GND	6.644E-17	$X=6.731 $Y=14.037
C113	A#13	GND	6.362E-17	$X=6.7485 $Y=14.667
C114	VDD#38	GND	6.826E-17	$X=6.8085 $Y=35.8235
C115	VDD#33	GND	2.240E-16	$X=7.041 $Y=37.928
C116	VDD#114	GND	8.878E-17	$X=8.171 $Y=17.3815
C117	|I0/avC8#2	GND	2.512E-16	$X=9.4905 $Y=35.509
C118	|I2/avC6#4	GND	1.042E-16	$X=8.6385 $Y=13.207
C119	B#12	GND	6.812E-17	$X=8.6215 $Y=32.0365
C120	VDD#109	GND	6.826E-17	$X=9.9685 $Y=33.0635
C121	VDD#104	GND	1.729E-16	$X=10.1995 $Y=34.929
C122	VDD#78	GND	6.975E-17	$X=10.2185 $Y=16.5745
C123	VDD#73	GND	5.172E-16	$X=13.584 $Y=19.5745
C124	VDD#31	GND	4.394E-16	$X=13.1265 $Y=40.8195
C125	|I2/D_nmos1v_avC_9#2	GND	9.535E-17	$X=10.9265 $Y=14.377
C126	|I0/avC9#2	GND	1.106E-16	$X=11.544 $Y=32.036
C127	VDD#126	GND	6.826E-17	$X=12.4885 $Y=15.4045
C128	VDD#100	GND	2.712E-16	$X=12.6105 $Y=36.1675
C129	VDD#96	GND	1.063E-16	$X=12.6095 $Y=38.875
C130	|I0/avC6#4	GND	1.500E-16	$X=12.6185 $Y=31.4835
C131	VDD#121	GND	1.133E-16	$X=12.7185 $Y=16.931
C132	avC9#3	GND	5.955E-17	$X=14.0035 $Y=14.377
C133	VDD#135	GND	2.060E-16	$X=15.7295 $Y=36.4995
C134	VDD#131	GND	2.183E-16	$X=14.6305 $Y=38.8735
C135	VDD#133	GND	7.279E-17	$X=14.628 $Y=38.1535
C136	|I0/avC7#4	GND	1.252E-16	$X=14.6385 $Y=31.4835
C137	avC9#2	GND	5.498E-16	$X=15.1535 $Y=10.8725
C138	avC8#7	GND	1.829E-16	$X=16.899 $Y=33.2585
C139	Cin#6	GND	1.935E-16	$X=17.3265 $Y=25.301
C140	avC8#5	GND	2.906E-17	$X=17.4205 $Y=31.007
C141	avC8#13	GND	9.342E-17	$X=17.7485 $Y=29.511
C142	Cin#9	GND	1.359E-16	$X=18.7215 $Y=14.037
C143	avC8#29	GND	1.802E-16	$X=18.447 $Y=14.667
C144	VDD#45	GND	6.826E-17	$X=19.228 $Y=30.134
C145	VDD#40	GND	2.240E-16	$X=19.459 $Y=32.2385
C146	VDD#80	GND	8.878E-17	$X=20.59 $Y=17.3815
C147	|I1/avC8#2	GND	2.512E-16	$X=21.909 $Y=29.8195
C148	|I3/avC6#4	GND	1.042E-16	$X=21.058 $Y=13.207
C149	Cin#12	GND	6.812E-17	$X=21.041 $Y=26.3465
C150	VDD#59	GND	6.826E-17	$X=22.388 $Y=27.374
C151	VDD#54	GND	1.729E-16	$X=22.6185 $Y=29.2395
C152	VDD#28	GND	6.975E-17	$X=22.638 $Y=16.5745
C153	VDD#23	GND	7.514E-17	$X=23.138 $Y=18.4185
C154	VDD#10	GND	2.588E-16	$X=23.164 $Y=35.42
C155	|I3/D_nmos1v_avC_9#2	GND	9.535E-17	$X=23.346 $Y=14.377
C156	|I1/avC9#2	GND	1.106E-16	$X=23.9635 $Y=26.3465
C157	VDD#92	GND	6.826E-17	$X=24.9075 $Y=15.4045
C158	VDD#50	GND	2.712E-16	$X=25.0285 $Y=30.478
C159	VDD#14	GND	1.063E-16	$X=25.0285 $Y=33.1855
C160	|I1/avC6#4	GND	1.500E-16	$X=25.038 $Y=25.794
C161	VDD#87	GND	1.133E-16	$X=25.138 $Y=16.931
C162	avC10#4	GND	5.955E-17	$X=26.423 $Y=14.377
C163	VDD#111	GND	2.060E-16	$X=28.148 $Y=30.81
C164	VDD#63	GND	2.183E-16	$X=27.0485 $Y=33.1845
C165	VDD#65	GND	7.279E-17	$X=27.0475 $Y=32.4635
C166	|I1/avC7#4	GND	1.252E-16	$X=27.058 $Y=25.794
C167	avC10#3	GND	2.620E-16	$X=27.8685 $Y=13.057
C168	SUM#2	GND	2.032E-16	$X=29.6185 $Y=28.15
C169	avC9#13	GND	2.747E-16	$X=28.919 $Y=7.368
C170	avC10#2	GND	2.631E-16	$X=29.0855 $Y=10.3275
C171	VDD#21	GND	1.806E-16	$X=33.2675 $Y=10.37
C172	VDD#69	GND	2.262E-17	$X=32.6875 $Y=12.242
C173	|I4/avC7#4	GND	1.868E-16	$X=32.0625 $Y=9.4925
C174	VDD#71	GND	7.253E-17	$X=32.2675 $Y=11.4345
C175	VDD#7	GND	2.512E-16	$X=33.9175 $Y=14.2825
C176	|I4/D_nmos1v_avC_7#2	GND	8.651E-17	$X=34.2855 $Y=8.6775
C177	VDD#16	GND	6.826E-17	$X=35.757 $Y=9.705
C178	VDD#5	GND	1.399E-16	$X=35.987 $Y=11.5105
C179	Cout#2	GND	5.613E-17	$X=37.2475 $Y=8.6775
C180	Cout#1	GND	1.795E-16	$X=38.9675 $Y=8.6775
C181	A#4	GND	1.361E-16	$X=5.33 $Y=36.5605
C182	A#6	GND	3.558E-16	$X=2.697 $Y=35.592
C183	B#4	GND	1.534E-16	$X=6.11 $Y=30.8385
C184	B#6	GND	8.213E-16	$X=2.3335 $Y=22.006
C185	A#10	GND	5.720E-17	$X=7.0585 $Y=34.802
C186	A#15	GND	1.964E-16	$X=7.5905 $Y=15.2465
C187	|I2/avC6#2	GND	1.200E-16	$X=9.1385 $Y=12.167
C188	B#14	GND	5.999E-17	$X=10.218 $Y=32.042
C189	B#17	GND	3.819E-16	$X=9.6825 $Y=12.917
C190	|I2/D_nmos1v_avC_9#3	GND	1.105E-16	$X=9.7065 $Y=14.377
C191	|I2/D_nmos1v_avC_9#4	GND	1.677E-16	$X=9.14 $Y=15.127
C192	|I2/D_nmos1v_avC_9#6	GND	1.599E-16	$X=7.7695 $Y=16.1295
C193	|I2/D_nmos1v_avC_9#9	GND	5.162E-17	$X=9.138 $Y=13.747
C194	|I2/D_nmos1v_avC_9#12	GND	1.544E-16	$X=10.7195 $Y=16.1295
C195	|I0/avC9#3	GND	7.077E-17	$X=10.7885 $Y=32.0365
C196	|I0/avC9#5	GND	5.190E-17	$X=10.468 $Y=31.489
C197	|I0/avC9#8	GND	8.214E-17	$X=10.4685 $Y=32.881
C198	|I0/avC8#3	GND	6.874E-17	$X=7.6285 $Y=34.7965
C199	|I0/avC8#5	GND	5.193E-17	$X=7.308 $Y=34.249
C200	|I0/avC8#8	GND	8.101E-17	$X=7.3085 $Y=35.641
C201	|I0/avC6#2	GND	1.405E-16	$X=12.869 $Y=30.476
C202	|I2/D_nmos1v_avC_9#15	GND	5.999E-17	$X=12.738 $Y=14.3825
C203	A#18	GND	6.012E-16	$X=11.9545 $Y=35.887
C204	|I0/avC8#11	GND	4.371E-16	$X=14.2715 $Y=33.4925
C205	|I0/avC10#2	GND	1.692E-16	$X=15.129 $Y=37.8225
C206	|I0/avC10#4	GND	1.608E-16	$X=13.909 $Y=36.7055
C207	|I0/avC10#5	GND	1.824E-16	$X=13.9135 $Y=35.265
C208	|I0/avC10#7	GND	1.229E-16	$X=13.3405 $Y=34.8285
C209	|I0/avC10#10	GND	1.278E-16	$X=13.1085 $Y=37.823
C210	|I0/avC10#13	GND	1.198E-16	$X=14.42 $Y=34.829
C211	|I0/avC7#2	GND	1.489E-16	$X=14.8885 $Y=30.456
C212	|I0/avC9#11	GND	4.593E-16	$X=15.282 $Y=31.0225
C213	B#20	GND	1.041E-15	$X=12.879 $Y=28.995
C214	avC8#4	GND	1.103E-16	$X=17.7485 $Y=30.871
C215	avC8#6	GND	4.410E-16	$X=16.9025 $Y=29.378
C216	avC8#8	GND	1.057E-16	$X=15.1285 $Y=33.949
C217	avC8#9	GND	1.425E-16	$X=13.919 $Y=33.592
C218	avC8#11	GND	1.615E-16	$X=12.609 $Y=34.5505
C219	avC8#16	GND	9.333E-17	$X=15.128 $Y=34.7195
C220	avC8#18	GND	1.183E-16	$X=13.919 $Y=32.974
C221	avC8#20	GND	8.359E-17	$X=13.118 $Y=32.3115
C222	avC8#23	GND	1.049E-16	$X=15.1385 $Y=32.311
C223	Cin#5	GND	1.534E-16	$X=18.529 $Y=25.149
C224	avC8#26	GND	5.720E-17	$X=19.478 $Y=29.112
C225	avC8#31	GND	1.964E-16	$X=20.009 $Y=15.2465
C226	|I3/avC6#2	GND	1.200E-16	$X=21.558 $Y=12.167
C227	Cin#14	GND	5.999E-17	$X=22.6375 $Y=26.352
C228	avC9#4	GND	7.083E-17	$X=13.308 $Y=14.377
C229	avC9#6	GND	5.193E-17	$X=12.988 $Y=13.8295
C230	avC9#9	GND	8.214E-17	$X=12.9885 $Y=15.222
C231	Cin#17	GND	3.819E-16	$X=22.1 $Y=12.917
C232	|I3/D_nmos1v_avC_9#3	GND	1.105E-16	$X=22.1255 $Y=14.377
C233	|I3/D_nmos1v_avC_9#4	GND	1.677E-16	$X=21.5585 $Y=15.127
C234	|I3/D_nmos1v_avC_9#6	GND	1.599E-16	$X=20.1885 $Y=16.1295
C235	|I3/D_nmos1v_avC_9#9	GND	5.162E-17	$X=21.5575 $Y=13.747
C236	|I3/D_nmos1v_avC_9#12	GND	1.541E-16	$X=23.1385 $Y=16.1295
C237	|I1/avC9#3	GND	7.077E-17	$X=23.208 $Y=26.3465
C238	|I1/avC9#5	GND	5.190E-17	$X=22.8875 $Y=25.7995
C239	|I1/avC9#8	GND	8.214E-17	$X=22.888 $Y=27.1915
C240	|I1/avC8#3	GND	6.874E-17	$X=20.048 $Y=29.1065
C241	|I1/avC8#5	GND	5.193E-17	$X=19.7275 $Y=28.5595
C242	|I1/avC8#8	GND	8.101E-17	$X=19.728 $Y=29.9515
C243	|I1/avC6#2	GND	1.405E-16	$X=25.288 $Y=24.7865
C244	|I3/D_nmos1v_avC_9#15	GND	5.999E-17	$X=25.1575 $Y=14.3825
C245	avC8#34	GND	6.012E-16	$X=24.3705 $Y=30.199
C246	|I1/avC10#2	GND	1.692E-16	$X=27.548 $Y=32.133
C247	|I1/avC10#4	GND	1.608E-16	$X=26.328 $Y=31.016
C248	|I1/avC10#5	GND	1.824E-16	$X=26.33 $Y=29.577
C249	|I1/avC10#7	GND	1.229E-16	$X=25.7585 $Y=29.1395
C250	|I1/avC10#10	GND	1.278E-16	$X=25.528 $Y=32.1335
C251	|I1/avC10#13	GND	1.198E-16	$X=26.8385 $Y=29.1395
C252	|I1/avC7#2	GND	1.489E-16	$X=27.308 $Y=24.7665
C253	|I1/avC8#11	GND	4.371E-16	$X=26.689 $Y=27.804
C254	|I1/avC9#11	GND	4.511E-16	$X=27.699 $Y=25.334
C255	Cin#20	GND	1.036E-15	$X=25.2925 $Y=23.308
C256	avC10#5	GND	7.083E-17	$X=25.7275 $Y=14.377
C257	avC10#7	GND	5.193E-17	$X=25.4075 $Y=13.8295
C258	avC10#10	GND	8.214E-17	$X=25.4075 $Y=15.222
C259	avC10#13	GND	2.862E-16	$X=31.308 $Y=9.3355
C260	|I4/avC7#2	GND	2.383E-16	$X=32.3125 $Y=10.4875
C261	SUM#3	GND	1.057E-16	$X=27.5475 $Y=28.259
C262	SUM#4	GND	1.425E-16	$X=26.338 $Y=27.9025
C263	SUM#6	GND	1.615E-16	$X=25.028 $Y=28.861
C264	SUM#9	GND	9.333E-17	$X=27.5475 $Y=29.03
C265	SUM#11	GND	1.183E-16	$X=26.338 $Y=27.2845
C266	SUM#13	GND	8.359E-17	$X=25.5375 $Y=26.6215
C267	SUM#16	GND	1.049E-16	$X=27.5575 $Y=26.6215
C268	avC9#15	GND	1.964E-16	$X=33.15 $Y=7.3875
C269	|I4/D_nmos1v_avC_7#4	GND	1.919E-16	$X=32.7675 $Y=8.5705
C270	|I4/D_nmos1v_avC_7#6	GND	1.869E-16	$X=32.7675 $Y=7.1575
C271	|I4/D_nmos1v_avC_7#8	GND	1.141E-16	$X=31.5575 $Y=6.3075
C272	|I4/D_nmos1v_avC_7#11	GND	1.175E-16	$X=34.0475 $Y=6.3075
C273	VDD#2	GND	2.235E-17	$X=35.872 $Y=10.5125
C274	VDD#6	GND	1.352E-16	$X=34.7635 $Y=12.242
C275	VDD#8	GND	1.698E-15	$X=33.9185 $Y=25.803
C276	VDD#9	GND	1.398E-15	$X=28.5455 $Y=40.8025
C277	VDD#11	GND	2.552E-16	$X=21.76 $Y=33.269
C278	VDD#18	GND	1.375E-16	$X=33.2675 $Y=11.605
C279	VDD#22	GND	8.656E-16	$X=23.1435 $Y=19.2985
C280	VDD#25	GND	1.805E-16	$X=22.889 $Y=17.3815
C281	VDD#30	GND	5.169E-16	$X=21.3615 $Y=41.245
C282	VDD#32	GND	2.552E-16	$X=9.342 $Y=38.958
C283	VDD#35	GND	2.521E-17	$X=6.9235 $Y=36.631
C284	VDD#42	GND	2.521E-17	$X=19.343 $Y=30.9415
C285	VDD#48	GND	1.300E-16	$X=25.028 $Y=32.0145
C286	VDD#56	GND	2.235E-17	$X=22.503 $Y=28.1815
C287	VDD#75	GND	1.808E-16	$X=10.471 $Y=17.3815
C288	VDD#85	GND	6.228E-17	$X=19.688 $Y=16.5745
C289	VDD#89	GND	2.223E-17	$X=25.0225 $Y=16.212
C290	VDD#98	GND	1.300E-16	$X=12.609 $Y=37.704
C291	VDD#106	GND	2.235E-17	$X=10.0835 $Y=33.8715
C292	VDD#119	GND	6.228E-17	$X=7.2685 $Y=16.5745
C293	VDD#123	GND	2.223E-17	$X=12.603 $Y=16.212
C294	|I4/D_nmos1v_avC_7#14	GND	5.998E-17	$X=36.007 $Y=8.683
C295	Cout#3	GND	7.078E-17	$X=36.577 $Y=8.6775
C296	Cout#5	GND	5.193E-17	$X=36.257 $Y=8.13
C297	Cout#8	GND	8.214E-17	$X=36.257 $Y=9.5225
*
*
.ENDS full_adder
*
