*
*
*
*                       LINUX           Tue Jan 14 00:21:36 2025
*
*
*
*  PROGRAM  advgen
*
*  HSPICE LIBRARY
*
*
*

*
.SUBCKT not_gate VDD GND IN OUT
*
*
*  caps2d version: 10
*
*
*       TRANSISTOR CARDS
*
*
MavD1_1	OUT#2	IN#4	GND#6	GND#1	nmos1v#20ivpcell#20gpdk090	L=0.18U
+ W=0.42U
+ AD=0.1176P	AS=0.1176P	PD=1.4U	PS=1.4U
+ simW=4.2e-07 fw=4.2e-07
MavD7_1	OUT#5	IN#2	VDD#6	VDD#1	pmos1v#20ivpcell#20gpdk090	L=0.18U
+ W=0.985U
+ AD=0.2758P	AS=0.2758P	PD=2.53U	PS=2.53U
+ simW=9.85e-07 fw=9.85e-07
*
*
*       RESISTOR AND CAP/DIODE CARDS
*
Ri1	IN#1	IN	   10.4663	$mt1	$X=0.41 $Y=1.69
Ri4	VDD#2	VDD#5	    0.5674	$mt1	$X=1.26 $Y=3.295
Ri5	VDD#5	VDD#6	    5.0000	$mt1	$X=1.26 $Y=2.6325
Ri6	VDD#2	VDD	    0.2491	$mt1	$X=1.49 $Y=3.7325
Ri7	VDD#1	VDD#2	   15.0000	$mt1	$X=1.76 $Y=3.525
Ri8	VDD#1	VDD#2	   15.0000	$mt1	$X=1.26 $Y=3.525
Ri11	GND#2	GND#5	    0.3791	$mt1	$X=1.26 $Y=0.67
Ri12	GND#5	GND#6	   15.0000	$mt1	$X=1.26 $Y=1.05
Ri13	GND#2	GND	    0.2258	$mt1	$X=1.49 $Y=0.25
Ri14	GND#1	GND#2	   15.0000	$mt1	$X=1.76 $Y=0.44
Ri15	GND#1	GND#2	   15.0000	$mt1	$X=1.26 $Y=0.44
Ri16	OUT	OUT#1	    0.7421	$mt1	$X=2.3405 $Y=1.69
Ri17	OUT#1	OUT#3	    0.4205	$mt1	$X=1.76 $Y=1.445
Ri19	OUT#1	OUT#6	    0.6222	$mt1	$X=1.76 $Y=1.945
Ri21	OUT#2	OUT#3	   15.0000	$mt1	$X=1.76 $Y=1.05
Ri22	OUT#5	OUT#6	    5.0000	$mt1	$X=1.76 $Y=2.6325
Rj1	IN#2	IN#3	   24.8441	$poly	$X=1.51 $Y=1.94
Rj2	IN#3	IN#1	   61.3880	$poly	$X=1.15 $Y=1.69
Rj3	IN#3	IN#4	   23.7330	$poly	$X=1.51 $Y=1.45
*
*       CAPACITOR CARDS
*
*
C1	VDD	GND	3.541E-17	$X=1.4875 $Y=3.863
C2	IN	GND	4.805E-17	$X=0.2025 $Y=1.687
C3	OUT	GND	6.410E-17	$X=2.658 $Y=1.687
C4	IN#2	GND	1.010E-16	$X=1.5085 $Y=2.62
C5	IN#4	GND	7.689E-17	$X=1.508 $Y=1.0525
C6	IN#1	GND	9.429E-17	$X=0.7005 $Y=1.687
C7	VDD#1	GND	3.377E-17	$X=1.5125 $Y=3.113
C8	VDD#5	GND	6.826E-17	$X=1.258 $Y=2.7145
C9	VDD#2	GND	2.129E-17	$X=1.373 $Y=3.522
C10	IN#3	GND	5.988E-17	$X=1.508 $Y=1.6925
C11	OUT#1	GND	7.032E-17	$X=2.0775 $Y=1.687
C12	OUT#3	GND	5.193E-17	$X=1.7575 $Y=1.1395
C13	OUT#6	GND	8.214E-17	$X=1.758 $Y=2.532
*
*
.ENDS not_gate
*
