*
*
*
*                       LINUX           Mon Jan 20 15:15:55 2025
*
*
*
*  PROGRAM  advgen
*
*  HSPICE LIBRARY
*
*
*

*
.SUBCKT mux_2x1 VDD GND A B S OUT
*
*
*  caps2d version: 10
*
*
*       TRANSISTOR CARDS
*
*
M|I3/|I0/avD1_1	OUT#4	|I3/D_nmos1v_avC_3#15	GND#16	GND#1
+ nmos1v#20ivpcell#20gpdk090	L=0.18U	W=0.42U
+ AD=0.1176P	AS=0.1176P	PD=1.4U	PS=1.4U
+ simW=4.2e-07 fw=4.2e-07 
M|I3/avD1_1	|I3/D_nmos1v_avC_3#7	avC8#16	GND#18	GND#1
+ nmos1v#20ivpcell#20gpdk090	L=0.18U	W=0.42U
+ AD=0.1176P	AS=0.1176P	PD=1.4U	PS=1.4U
+ simW=4.2e-07 fw=4.2e-07 
M|I3/avD1_2	|I3/D_nmos1v_avC_3#10	avC9#12	GND#33	GND#1
+ nmos1v#20ivpcell#20gpdk090	L=0.18U	W=0.42U
+ AD=0.1176P	AS=0.1176P	PD=1.4U	PS=1.4U
+ simW=4.2e-07 fw=4.2e-07 
M|I0/|I0/avD1_1	avC8#5	|I0/D_nmos1v_avC_5#16	GND#47	GND#1
+ nmos1v#20ivpcell#20gpdk090	L=0.18U	W=0.42U
+ AD=0.1176P	AS=0.1176P	PD=1.4U	PS=1.4U
+ simW=4.2e-07 fw=4.2e-07 
M|I0/avD1_1	|I0/avC6	S#13	GND#28	GND#1
+ nmos1v#20ivpcell#20gpdk090	L=0.18U	W=0.42U
+ AD=0.1176P	AS=0.1176P	PD=1.4U	PS=1.4U
+ simW=4.2e-07 fw=4.2e-07 
M|I0/avD1_2	|I0/D_nmos1v_avC_5#8	A#5	|I0/avC6#5	GND#1
+ nmos1v#20ivpcell#20gpdk090	L=0.18U	W=0.42U
+ AD=0.1176P	AS=0.1176P	PD=1.4U	PS=1.4U
+ simW=4.2e-07 fw=4.2e-07 
M|I1/|I0/avD1_1	avC9#6	|I1/D_nmos1v_avC_5#16	GND#41	GND#1
+ nmos1v#20ivpcell#20gpdk090	L=0.18U	W=0.42U
+ AD=0.1176P	AS=0.1176P	PD=1.4U	PS=1.4U
+ simW=4.2e-07 fw=4.2e-07 
M|I1/avD1_1	|I1/avC6	B#7	GND#23	GND#1
+ nmos1v#20ivpcell#20gpdk090	L=0.18U	W=0.42U
+ AD=0.1176P	AS=0.1176P	PD=1.4U	PS=1.4U
+ simW=4.2e-07 fw=4.2e-07 
M|I1/avD1_2	|I1/D_nmos1v_avC_5#8	avC7#13	|I1/avC6#5	GND#1
+ nmos1v#20ivpcell#20gpdk090	L=0.18U	W=0.42U
+ AD=0.1176P	AS=0.1176P	PD=1.4U	PS=1.4U
+ simW=4.2e-07 fw=4.2e-07 
M|I2/avD1_1	avC7#4	S#7	GND#32	GND#1	nmos1v#20ivpcell#20gpdk090
+ L=0.18U	W=0.42U
+ AD=0.1176P	AS=0.1176P	PD=1.4U	PS=1.4U
+ simW=4.2e-07 fw=4.2e-07 
M|I3/|I0/avD7_1	OUT#7	|I3/D_nmos1v_avC_3#13	VDD#20	VDD#1
+ pmos1v#20ivpcell#20gpdk090	L=0.18U	W=0.985U
+ AD=0.2758P	AS=0.2758P	PD=2.53U	PS=2.53U
+ simW=9.85e-07 fw=9.85e-07 
M|I3/|PM0/avD7_1	|I3/avC7	avC8#14	VDD#57	VDD#52
+ pmos1v#20ivpcell#20gpdk090	L=0.18U	W=0.985U
+ AD=0.2758P	AS=0.2758P	PD=2.53U	PS=2.53U
+ simW=9.85e-07 fw=9.85e-07 
M|I3/|PM1/avD7_1	|I3/D_nmos1v_avC_3#3	avC9#14	|I3/avC7#5
+ VDD#22	pmos1v#20ivpcell#20gpdk090	L=0.18U	W=0.985U
+ AD=0.2758P	AS=0.2758P	PD=2.53U	PS=2.53U
+ simW=9.85e-07 fw=9.85e-07 
M|I0/|I0/avD7_1	avC8#8	|I0/D_nmos1v_avC_5#14	VDD#47	VDD#42
+ pmos1v#20ivpcell#20gpdk090	L=0.18U	W=0.985U
+ AD=0.2758P	AS=0.2758P	PD=2.53U	PS=2.53U
+ simW=9.85e-07 fw=9.85e-07 
M|I0/|PM1/avD7_1	|I0/D_nmos1v_avC_5#11	S#11	VDD#40	VDD#12
+ pmos1v#20ivpcell#20gpdk090	L=0.18U	W=0.985U
+ AD=0.2758P	AS=0.2758P	PD=2.53U	PS=2.53U
+ simW=9.85e-07 fw=9.85e-07 
M|I0/|PM0/avD7_1	|I0/D_nmos1v_avC_5#5	A#7	VDD#49	VDD#17
+ pmos1v#20ivpcell#20gpdk090	L=0.18U	W=0.985U
+ AD=0.2758P	AS=0.2758P	PD=2.53U	PS=2.53U
+ simW=9.85e-07 fw=9.85e-07 
M|I1/|I0/avD7_1	avC9#9	|I1/D_nmos1v_avC_5#14	VDD#71	VDD#66
+ pmos1v#20ivpcell#20gpdk090	L=0.18U	W=0.985U
+ AD=0.2758P	AS=0.2758P	PD=2.53U	PS=2.53U
+ simW=9.85e-07 fw=9.85e-07 
M|I1/|PM1/avD7_1	|I1/D_nmos1v_avC_5#11	B#5	VDD#31	VDD#26
+ pmos1v#20ivpcell#20gpdk090	L=0.18U	W=0.985U
+ AD=0.2758P	AS=0.2758P	PD=2.53U	PS=2.53U
+ simW=9.85e-07 fw=9.85e-07 
M|I1/|PM0/avD7_1	|I1/D_nmos1v_avC_5#5	avC7#15	VDD#62	VDD#59
+ pmos1v#20ivpcell#20gpdk090	L=0.18U	W=0.985U
+ AD=0.2758P	AS=0.2758P	PD=2.53U	PS=2.53U
+ simW=9.85e-07 fw=9.85e-07 
M|I2/avD7_1	avC7#7	S#5	VDD#38	VDD#33	pmos1v#20ivpcell#20gpdk090
+ L=0.18U	W=0.985U
+ AD=0.2758P	AS=0.2758P	PD=2.53U	PS=2.53U
+ simW=9.85e-07 fw=9.85e-07 
*
*
*       RESISTOR AND CAP/DIODE CARDS
*
Ri1	B#1	B	   14.3063	$mt1	$X=3.29 $Y=4.93
Ri2	S#1	S#2	   18.3868	$mt1	$X=4.735 $Y=23.09
Ri3	S#2	S	    1.9002	$mt1	$X=1.49 $Y=14.04
Ri4	S#2	S#3	    1.7539	$mt1	$X=4.24 $Y=14.04
Ri5	S#3	S#4	   10.4667	$mt1	$X=5.91 $Y=14.04
Ri6	A#1	A	   14.3330	$mt1	$X=3.31 $Y=23.72
Ri7	avC7	avC7#2	   11.4714	$mt1	$X=8.99 $Y=13.195
Ri8	avC7#2	avC7#3	    0.7421	$mt1	$X=7.84 $Y=14.04
Ri9	avC7#3	avC7#5	    0.4205	$mt1	$X=7.26 $Y=13.795
Ri11	avC7#3	avC7#8	    0.6222	$mt1	$X=7.26 $Y=14.295
Ri13	avC7#4	avC7#5	   15.0000	$mt1	$X=7.26 $Y=13.4
Ri14	avC7#7	avC7#8	    5.0000	$mt1	$X=7.26 $Y=14.9825
Ri15	avC7#11	avC7#12	   10.5000	$mt1
+ $X=9.915 $Y=5.56
Ri16	avC7#12	avC7#10	    4.2980	$mt1
+ $X=9.265 $Y=5.56
Ri17	B#3	B#4	   10.5000	$mt1	$X=9.915 $Y=4.93
Ri18	B#4	B#2	    1.4000	$mt1	$X=8.49 $Y=4.93
Ri19	A#3	A#4	   10.5000	$mt1	$X=9.915 $Y=23.72
Ri20	A#4	A#2	    1.4200	$mt1	$X=8.475 $Y=23.72
Ri21	S#9	S#10	   10.5000	$mt1	$X=9.915 $Y=23.09
Ri22	S#10	S#8	    1.4200	$mt1	$X=8.475 $Y=23.09
Ri24	|I0/avC6#2	|I0/avC6#4	    1.4494	$mt1
+ $X=11.5605 $Y=21.69
Ri25	|I0/avC6#4	|I0/avC6#5	   15.0000	$mt1
+ $X=11.41 $Y=22.68
Ri26	|I0/avC6	|I0/avC6#2	   15.0000	$mt1
+ $X=11.91 $Y=20.9
Ri28	|I1/avC6#2	|I1/avC6#4	    1.4494	$mt1
+ $X=11.5605 $Y=3.53
Ri29	|I1/avC6#4	|I1/avC6#5	   15.0000	$mt1
+ $X=11.41 $Y=4.52
Ri30	|I1/avC6	|I1/avC6#2	   15.0000	$mt1
+ $X=11.91 $Y=2.74
Ri31	|I0/D_nmos1v_avC_5	|I0/D_nmos1v_avC_5#2	   10.4667	$mt1
+ $X=14.41 $Y=23.43
Ri32	|I0/D_nmos1v_avC_5#2	|I0/D_nmos1v_avC_5#3	    1.4021	$mt1
+ $X=12.985 $Y=23.43
Ri33	|I0/D_nmos1v_avC_5#3	|I0/D_nmos1v_avC_5#4	    0.6027	$mt1
+ $X=11.91 $Y=23.91
Ri34	|I0/D_nmos1v_avC_5#4	|I0/D_nmos1v_avC_5#6	    1.6402	$mt1
+ $X=11.225 $Y=24.39
Ri36	|I0/D_nmos1v_avC_5#3	|I0/D_nmos1v_avC_5#9	    0.4939	$mt1
+ $X=11.91 $Y=23.13
Ri38	|I0/D_nmos1v_avC_5#4	|I0/D_nmos1v_avC_5#12	    1.7802	$mt1
+ $X=12.7 $Y=24.39
Ri40	|I0/D_nmos1v_avC_5#5	|I0/D_nmos1v_avC_5#6	    5.0000	$mt1
+ $X=10.54 $Y=25.5425
Ri41	|I0/D_nmos1v_avC_5#8	|I0/D_nmos1v_avC_5#9	   15.0000	$mt1
+ $X=11.91 $Y=22.68
Ri42	|I0/D_nmos1v_avC_5#11	|I0/D_nmos1v_avC_5#12	    5.0000	$mt1
+ $X=13.49 $Y=25.5425
Ri43	|I1/D_nmos1v_avC_5	|I1/D_nmos1v_avC_5#2	   10.4667	$mt1
+ $X=14.41 $Y=5.27
Ri44	|I1/D_nmos1v_avC_5#2	|I1/D_nmos1v_avC_5#3	    1.4021	$mt1
+ $X=12.985 $Y=5.27
Ri45	|I1/D_nmos1v_avC_5#3	|I1/D_nmos1v_avC_5#4	    0.6027	$mt1
+ $X=11.91 $Y=5.75
Ri46	|I1/D_nmos1v_avC_5#4	|I1/D_nmos1v_avC_5#6	    1.6402	$mt1
+ $X=11.225 $Y=6.23
Ri48	|I1/D_nmos1v_avC_5#3	|I1/D_nmos1v_avC_5#9	    0.4939	$mt1
+ $X=11.91 $Y=4.97
Ri50	|I1/D_nmos1v_avC_5#4	|I1/D_nmos1v_avC_5#12	    1.7802	$mt1
+ $X=12.7 $Y=6.23
Ri52	|I1/D_nmos1v_avC_5#5	|I1/D_nmos1v_avC_5#6	    5.0000	$mt1
+ $X=10.54 $Y=7.3825
Ri53	|I1/D_nmos1v_avC_5#8	|I1/D_nmos1v_avC_5#9	   15.0000	$mt1
+ $X=11.91 $Y=4.52
Ri54	|I1/D_nmos1v_avC_5#11	|I1/D_nmos1v_avC_5#12	    5.0000	$mt1
+ $X=13.49 $Y=7.3825
Ri55	avC8	avC8#2	   13.1847	$mt1	$X=17.95 $Y=21.24
Ri56	avC8#2	avC8#3	    0.3867	$mt1	$X=17.21 $Y=23.43
Ri57	avC8#3	avC8#4	    0.7421	$mt1	$X=16.34 $Y=23.43
Ri58	avC8#4	avC8#6	    0.4205	$mt1	$X=15.76 $Y=23.185
Ri60	avC8#4	avC8#9	    0.6222	$mt1	$X=15.76 $Y=23.685
Ri62	avC8#5	avC8#6	   15.0000	$mt1	$X=15.76 $Y=22.79
Ri63	avC8#8	avC8#9	    5.0000	$mt1	$X=15.76 $Y=24.3725
Ri64	avC8#12	avC8#13	   10.4067	$mt1
+ $X=18.925 $Y=16
Ri65	avC8#13	avC8#11	    1.8447	$mt1
+ $X=18.285 $Y=16
Ri66	avC9	avC9#2	   11.3133	$mt1	$X=19.605 $Y=13.04
Ri67	avC9#2	avC9#3	    5.8561	$mt1	$X=18.31 $Y=13.04
Ri68	avC9#3	avC9#4	    0.3867	$mt1	$X=17.21 $Y=5.27
Ri69	avC9#4	avC9#5	    0.7421	$mt1	$X=16.34 $Y=5.27
Ri70	avC9#5	avC9#7	    0.4205	$mt1	$X=15.76 $Y=5.025
Ri72	avC9#5	avC9#10	    0.6222	$mt1	$X=15.76 $Y=5.525
Ri74	avC9#6	avC9#7	   15.0000	$mt1	$X=15.76 $Y=4.63
Ri75	avC9#9	avC9#10	    5.0000	$mt1	$X=15.76 $Y=6.2125
Ri77	|I3/avC7#2	|I3/avC7#4	    1.9874	$mt1
+ $X=20.54 $Y=16.068
Ri78	|I3/avC7#4	|I3/avC7#5	    5.0000	$mt1
+ $X=20.95 $Y=14.6725
Ri79	|I3/avC7	|I3/avC7#2	    5.0000	$mt1
+ $X=21.45 $Y=17.0225
Ri80	|I3/D_nmos1v_avC_3	|I3/D_nmos1v_avC_3#2	   10.4667	$mt1
+ $X=23.59 $Y=14.35
Ri81	|I3/D_nmos1v_avC_3#2	|I3/D_nmos1v_avC_3#4	    1.2021	$mt1
+ $X=22.345 $Y=14.35
Ri83	|I3/D_nmos1v_avC_3#4	|I3/D_nmos1v_avC_3#6	    1.4838	$mt1
+ $X=21.45 $Y=13.32
Ri84	|I3/D_nmos1v_avC_3#6	|I3/D_nmos1v_avC_3#8	    1.2252	$mt1
+ $X=20.845 $Y=12.4
Ri86	|I3/D_nmos1v_avC_3#6	|I3/D_nmos1v_avC_3#11	    1.2719	$mt1
+ $X=22.09 $Y=12.4
Ri88	|I3/D_nmos1v_avC_3#3	|I3/D_nmos1v_avC_3#4	    5.0000	$mt1
+ $X=21.45 $Y=14.6725
Ri89	|I3/D_nmos1v_avC_3#7	|I3/D_nmos1v_avC_3#8	   15.0000	$mt1
+ $X=20.24 $Y=11.71
Ri90	|I3/D_nmos1v_avC_3#10	|I3/D_nmos1v_avC_3#11	   15.0000	$mt1
+ $X=22.73 $Y=11.71
Ri93	VDD#2	VDD#5	    0.2491	$mt1	$X=24.67 $Y=16.3925
Ri94	VDD#5	VDD#6	    2.2183	$mt1	$X=24.67 $Y=17.2575
Ri95	VDD#6	VDD#7	    0.2439	$mt1	$X=22.6 $Y=18.1225
Ri96	VDD#7	VDD#8	    0.2169	$mt1	$X=22.6 $Y=18.495
Ri97	VDD#8	VDD#9	   11.7352	$mt1	$X=22.6 $Y=23.4
Ri98	VDD#9	VDD#10	    0.6105	$mt1	$X=13.9525 $Y=28.14
Ri99	VDD#10	VDD#11	    0.4539	$mt1	$X=13.49 $Y=27.775
Ri100	VDD#11	VDD#13	    0.6532	$mt1	$X=13.49 $Y=26.9225
Ri103	VDD#13	VDD#16	    1.8000	$mt1	$X=11.783 $Y=26.435
Ri104	VDD#16	VDD#18	    0.1667	$mt1	$X=10.29 $Y=26.435
Ri105	VDD#2	VDD#19	    0.5674	$mt1	$X=24.44 $Y=15.955
Ri106	VDD#19	VDD#20	    5.0000	$mt1	$X=24.44 $Y=15.2925
Ri107	VDD#6	VDD#21	    0.4272	$mt1	$X=22.275 $Y=17.915
Ri108	VDD#21	VDD#23	    1.8320	$mt1	$X=21.95 $Y=16.74
Ri109	VDD#23	VDD#24	    0.1667	$mt1	$X=21.2 $Y=15.565
Ri110	VDD#24	VDD#22	   15.1667	$mt1	$X=21.2 $Y=15.565
Ri111	VDD#8	VDD#25	   12.2786	$mt1	$X=18.045 $Y=18.66
Ri112	VDD#25	VDD#27	    0.6532	$mt1	$X=13.49 $Y=8.7625
Ri115	VDD#27	VDD#30	    0.5982	$mt1	$X=12.99 $Y=8.045
Ri116	VDD#30	VDD#31	    5.0000	$mt1	$X=12.99 $Y=7.3825
Ri117	VDD#9	VDD	    0.3873	$mt1	$X=14.415 $Y=28.455
Ri118	VDD#10	VDD#32	   12.1950	$mt1	$X=10.24 $Y=28.14
Ri119	VDD#32	VDD#34	    0.2491	$mt1	$X=6.99 $Y=16.0825
Ri122	VDD#34	VDD#37	    0.5674	$mt1	$X=6.76 $Y=15.645
Ri123	VDD#37	VDD#38	    5.0000	$mt1	$X=6.76 $Y=14.9825
Ri124	VDD#13	VDD#39	    0.5982	$mt1	$X=12.99 $Y=26.205
Ri125	VDD#39	VDD#40	    5.0000	$mt1	$X=12.99 $Y=25.5425
Ri126	VDD#13	VDD#41	    1.8014	$mt1	$X=14.52 $Y=26.435
Ri127	VDD#41	VDD#43	    0.2491	$mt1	$X=15.49 $Y=25.4725
Ri130	VDD#43	VDD#46	    0.5674	$mt1	$X=15.26 $Y=25.035
Ri131	VDD#46	VDD#47	    5.0000	$mt1	$X=15.26 $Y=24.3725
Ri132	VDD#16	VDD#48	    0.1667	$mt1	$X=10.29 $Y=26.435
Ri133	VDD#48	VDD#50	    0.5906	$mt1	$X=10.04 $Y=26.205
Ri135	VDD#21	VDD#53	    0.3303	$mt1	$X=21.73 $Y=17.915
Ri136	VDD#53	VDD#54	    0.1667	$mt1	$X=21.2 $Y=17.915
Ri137	VDD#54	VDD#55	    0.1667	$mt1	$X=21.2 $Y=17.915
Ri138	VDD#55	VDD#56	    0.5982	$mt1	$X=20.95 $Y=17.685
Ri139	VDD#56	VDD#57	    5.0000	$mt1	$X=20.95 $Y=17.0225
Ri140	VDD#27	VDD#58	    1.8000	$mt1	$X=11.783 $Y=8.275
Ri141	VDD#58	VDD#60	    0.1667	$mt1	$X=10.29 $Y=8.275
Ri142	VDD#58	VDD#61	    0.1667	$mt1	$X=10.29 $Y=8.275
Ri143	VDD#61	VDD#63	    0.5906	$mt1	$X=10.04 $Y=8.045
Ri145	VDD#27	VDD#65	    1.8014	$mt1	$X=14.52 $Y=8.275
Ri146	VDD#65	VDD#67	    0.2491	$mt1	$X=15.49 $Y=7.3125
Ri149	VDD#67	VDD#70	    0.5674	$mt1	$X=15.26 $Y=6.875
Ri150	VDD#70	VDD#71	    5.0000	$mt1	$X=15.26 $Y=6.2125
Ri151	VDD#1	VDD#2	   15.0000	$mt1	$X=24.94 $Y=16.185
Ri152	VDD#1	VDD#2	   15.0000	$mt1	$X=24.44 $Y=16.185
Ri153	VDD#12	VDD#13	   15.0000	$mt1	$X=13.49 $Y=26.435
Ri154	VDD#12	VDD#13	   15.0000	$mt1	$X=12.99 $Y=26.435
Ri155	VDD#17	VDD#18	   15.0000	$mt1	$X=10.54 $Y=26.435
Ri156	VDD#22	VDD#23	   15.0000	$mt1	$X=21.45 $Y=15.565
Ri157	VDD#26	VDD#27	   15.0000	$mt1	$X=13.49 $Y=8.275
Ri158	VDD#26	VDD#27	   15.0000	$mt1	$X=12.99 $Y=8.275
Ri159	VDD#33	VDD#34	   15.0000	$mt1	$X=7.26 $Y=15.875
Ri160	VDD#33	VDD#34	   15.0000	$mt1	$X=6.76 $Y=15.875
Ri161	VDD#42	VDD#43	   15.0000	$mt1	$X=15.76 $Y=25.265
Ri162	VDD#42	VDD#43	   15.0000	$mt1	$X=15.26 $Y=25.265
Ri163	VDD#17	VDD#48	   15.0000	$mt1	$X=10.04 $Y=26.435
Ri164	VDD#49	VDD#50	    5.0000	$mt1	$X=10.04 $Y=25.5425
Ri165	VDD#52	VDD#53	   15.0000	$mt1	$X=21.45 $Y=17.915
Ri166	VDD#52	VDD#55	   15.0000	$mt1	$X=20.95 $Y=17.915
Ri167	VDD#59	VDD#60	   15.0000	$mt1	$X=10.54 $Y=8.275
Ri168	VDD#59	VDD#61	   15.0000	$mt1	$X=10.04 $Y=8.275
Ri169	VDD#62	VDD#63	    5.0000	$mt1	$X=10.04 $Y=7.3825
Ri170	VDD#66	VDD#67	   15.0000	$mt1	$X=15.76 $Y=7.105
Ri171	VDD#66	VDD#67	   15.0000	$mt1	$X=15.26 $Y=7.105
Ri174	GND#2	GND#5	    0.2258	$mt1	$X=24.67 $Y=12.91
Ri175	GND#5	GND#6	    2.4550	$mt1	$X=24.67 $Y=11.885
Ri176	GND#6	GND#7	    0.4206	$mt1	$X=22.6 $Y=10.71
Ri177	GND#7	GND#8	   11.7783	$mt1	$X=22.6 $Y=5.6
Ri178	GND#8	GND#9	    0.5905	$mt1	$X=13.9675 $Y=0.83
Ri179	GND#9	GND#10	   11.7252	$mt1	$X=10.255 $Y=0.83
Ri180	GND#10	GND#11	    0.3036	$mt1	$X=6.99 $Y=12.18
Ri181	GND#11	GND#12	    0.2258	$mt1	$X=6.99 $Y=12.6
Ri184	GND#2	GND#15	    0.3791	$mt1	$X=24.44 $Y=13.33
Ri185	GND#15	GND#16	   15.0000	$mt1	$X=24.44 $Y=13.71
Ri186	GND#6	GND#17	    0.2405	$mt1	$X=22.415 $Y=11.05
Ri187	GND#17	GND#19	    2.0616	$mt1	$X=20.985 $Y=11.05
Ri189	GND#8	GND	    0.4806	$mt1	$X=14.415 $Y=0.445
Ri190	GND#9	GND#21	    0.2739	$mt1	$X=13.52 $Y=1.06
Ri191	GND#21	GND#22	    0.4288	$mt1	$X=13.52 $Y=1.635
Ri192	GND#22	GND#24	    1.8719	$mt1	$X=12.465 $Y=1.98
Ri194	GND#10	GND#26	    9.2147	$mt1	$X=9.09 $Y=11.95
Ri195	GND#26	GND#27	    0.4288	$mt1	$X=13.52 $Y=19.795
Ri196	GND#27	GND#29	    1.8719	$mt1	$X=12.465 $Y=20.14
Ri198	GND#12	GND#31	    0.3791	$mt1	$X=6.76 $Y=13.02
Ri199	GND#31	GND#32	   15.0000	$mt1	$X=6.76 $Y=13.4
Ri200	GND#17	GND#34	    0.4073	$mt1	$X=22.23 $Y=11.305
Ri202	GND#22	GND#36	    2.3786	$mt1	$X=14.505 $Y=1.98
Ri203	GND#36	GND#37	    0.2258	$mt1	$X=15.49 $Y=3.83
Ri206	GND#37	GND#40	    0.3791	$mt1	$X=15.26 $Y=4.25
Ri207	GND#40	GND#41	   15.0000	$mt1	$X=15.26 $Y=4.63
Ri208	GND#27	GND#42	    2.3786	$mt1	$X=14.505 $Y=20.14
Ri209	GND#42	GND#43	    0.2258	$mt1	$X=15.49 $Y=21.99
Ri212	GND#43	GND#46	    0.3791	$mt1	$X=15.26 $Y=22.41
Ri213	GND#46	GND#47	   15.0000	$mt1	$X=15.26 $Y=22.79
Ri214	GND#1	GND#2	   15.0000	$mt1	$X=24.94 $Y=13.1
Ri215	GND#1	GND#2	   15.0000	$mt1	$X=24.44 $Y=13.1
Ri216	GND#1	GND#12	   15.0000	$mt1	$X=7.26 $Y=12.79
Ri217	GND#1	GND#12	   15.0000	$mt1	$X=6.76 $Y=12.79
Ri218	GND#18	GND#19	   15.0000	$mt1	$X=19.74 $Y=11.71
Ri219	GND#23	GND#24	   15.0000	$mt1	$X=11.41 $Y=2.74
Ri220	GND#28	GND#29	   15.0000	$mt1	$X=11.41 $Y=20.9
Ri221	GND#33	GND#34	   15.0000	$mt1	$X=22.23 $Y=11.71
Ri222	GND#1	GND#37	   15.0000	$mt1	$X=15.76 $Y=4.02
Ri223	GND#1	GND#37	   15.0000	$mt1	$X=15.26 $Y=4.02
Ri224	GND#1	GND#43	   15.0000	$mt1	$X=15.76 $Y=22.18
Ri225	GND#1	GND#43	   15.0000	$mt1	$X=15.26 $Y=22.18
Ri226	OUT	OUT#1	    1.4600	$mt1	$X=27.6755 $Y=14.35
Ri227	OUT#1	OUT#2	    0.3200	$mt1	$X=26.34 $Y=14.35
Ri228	OUT#2	OUT#3	    0.7421	$mt1	$X=25.52 $Y=14.35
Ri229	OUT#3	OUT#5	    0.4205	$mt1	$X=24.94 $Y=14.105
Ri231	OUT#3	OUT#8	    0.6222	$mt1	$X=24.94 $Y=14.605
Ri233	OUT#4	OUT#5	   15.0000	$mt1	$X=24.94 $Y=13.71
Ri234	OUT#7	OUT#8	    5.0000	$mt1	$X=24.94 $Y=15.2925
Rj1	S#5	S#6	   24.8441	$poly	$X=7.01 $Y=14.29
Rj2	S#6	S#4	   61.3880	$poly	$X=6.65 $Y=14.04
Rj3	S#6	S#7	   23.7330	$poly	$X=7.01 $Y=13.8
Rj4	A#2	A#1	   80.0871	$poly	$X=6.985 $Y=23.72
Rj5	S#8	S#1	   81.0871	$poly	$X=6.98 $Y=23.09
Rj6	B#2	B#1	   87.0871	$poly	$X=6.98 $Y=4.93
Rj7	avC7	avC7#10	   79.0871	$poly	$X=8.99 $Y=11.93
Rj8	A#5	A#6	  137.0587	$poly	$X=11.66 $Y=23.44
Rj9	A#6	A#7	   53.4049	$poly	$X=10.29 $Y=24.61
Rj10	A#6	A#3	   27.7133	$poly	$X=10.29 $Y=23.905
Rj11	avC7#13	avC7#14	  137.0587	$poly
+ $X=11.66 $Y=5.28
Rj12	avC7#14	avC7#15	   53.4049	$poly
+ $X=10.29 $Y=6.45
Rj13	avC7#14	avC7#11	   27.7133	$poly
+ $X=10.29 $Y=5.745
Rj14	S#11	S#12	  258.2558	$poly	$X=13.24 $Y=23.555
Rj15	S#12	S#9	  234.3640	$poly	$X=10.955 $Y=21.97
Rj16	S#12	S#13	   45.1971	$poly	$X=11.66 $Y=21.9
Rj17	B#5	B#6	  258.2558	$poly	$X=13.24 $Y=5.395
Rj18	B#6	B#3	  234.3640	$poly	$X=10.955 $Y=3.81
Rj19	B#6	B#7	   45.1971	$poly	$X=11.66 $Y=3.74
Rj20	|I0/D_nmos1v_avC_5#14	|I0/D_nmos1v_avC_5#15	   24.8441	$poly
+ $X=15.51 $Y=23.68
Rj21	|I0/D_nmos1v_avC_5#15	|I0/D_nmos1v_avC_5	   61.3880	$poly
+ $X=15.15 $Y=23.43
Rj22	|I0/D_nmos1v_avC_5#15	|I0/D_nmos1v_avC_5#16	   23.7330	$poly
+ $X=15.51 $Y=23.19
Rj23	|I1/D_nmos1v_avC_5#14	|I1/D_nmos1v_avC_5#15	   24.8441	$poly
+ $X=15.51 $Y=5.52
Rj24	|I1/D_nmos1v_avC_5#15	|I1/D_nmos1v_avC_5	   61.3880	$poly
+ $X=15.15 $Y=5.27
Rj25	|I1/D_nmos1v_avC_5#15	|I1/D_nmos1v_avC_5#16	   23.7330	$poly
+ $X=15.51 $Y=5.03
Rj26	avC8	avC8#11	   85.0871	$poly	$X=17.95 $Y=18.6
Rj27	avC8#14	avC8#15	   96.0340	$poly
+ $X=21.2 $Y=16.305
Rj28	avC8#15	avC8#12	   65.5037	$poly
+ $X=19.625 $Y=16
Rj29	avC8#15	avC8#16	  224.0563	$poly
+ $X=19.99 $Y=15.925
Rj30	avC9#12	avC9#13	  132.8311	$poly
+ $X=22.48 $Y=12.445
Rj31	avC9#13	avC9	   50.2528	$poly	$X=20.91 $Y=13.04
Rj32	avC9#13	avC9#14	   60.6951	$poly
+ $X=21.2 $Y=13.12
Rj33	|I3/D_nmos1v_avC_3#13	|I3/D_nmos1v_avC_3#14	   24.8441	$poly
+ $X=24.69 $Y=14.6
Rj34	|I3/D_nmos1v_avC_3#14	|I3/D_nmos1v_avC_3	   61.3880	$poly
+ $X=24.33 $Y=14.35
Rj35	|I3/D_nmos1v_avC_3#14	|I3/D_nmos1v_avC_3#15	   23.7330	$poly
+ $X=24.69 $Y=14.11
*
*       CAPACITOR CARDS
*
*
C1	VDD	GND	4.549E-17	$X=14.4125 $Y=28.6395
C2	A	GND	2.552E-16	$X=1.6565 $Y=23.7145
C3	B	GND	2.463E-16	$X=1.6465 $Y=4.9275
C4	S	GND	1.230E-16	$X=0.744 $Y=14.0365
C5	OUT	GND	9.993E-17	$X=28.25 $Y=14.347
C6	avC7	GND	1.514E-16	$X=8.989 $Y=12.509
C7	avC9	GND	1.410E-16	$X=20.3715 $Y=13.0365
C8	avC8	GND	2.489E-16	$X=17.9485 $Y=19.521
C9	|I3/D_nmos1v_avC_3	GND	9.405E-17	$X=23.88 $Y=14.347
C10	|I0/D_nmos1v_avC_5	GND	9.409E-17	$X=14.7005 $Y=23.4265
C11	|I1/D_nmos1v_avC_5	GND	9.409E-17	$X=14.7005 $Y=5.2675
C12	S#5	GND	1.021E-16	$X=7.009 $Y=14.9695
C13	avC7#15	GND	1.215E-16	$X=10.289 $Y=7.25
C14	A#7	GND	1.308E-16	$X=10.289 $Y=25.4075
C15	B#5	GND	3.231E-16	$X=13.2405 $Y=6.363
C16	S#11	GND	3.231E-16	$X=13.2405 $Y=24.518
C17	|I1/D_nmos1v_avC_5#14	GND	1.020E-16	$X=15.5085 $Y=6.2005
C18	|I0/D_nmos1v_avC_5#14	GND	1.020E-16	$X=15.5085 $Y=24.3585
C19	avC9#14	GND	1.437E-16	$X=21.198 $Y=14.4865
C20	avC8#14	GND	1.782E-16	$X=21.198 $Y=16.793
C21	|I3/D_nmos1v_avC_3#13	GND	1.021E-16	$X=24.6875 $Y=15.2795
C22	S#7	GND	7.739E-17	$X=7.0085 $Y=13.402
C23	B#7	GND	1.085E-16	$X=11.6585 $Y=2.85
C24	avC7#13	GND	2.180E-16	$X=11.6595 $Y=5.0675
C25	S#13	GND	1.085E-16	$X=11.6585 $Y=21.0085
C26	A#5	GND	2.180E-16	$X=11.6595 $Y=23.225
C27	|I1/D_nmos1v_avC_5#16	GND	7.796E-17	$X=15.508 $Y=4.6325
C28	|I0/D_nmos1v_avC_5#16	GND	7.796E-17	$X=15.508 $Y=22.7915
C29	avC8#16	GND	2.961E-16	$X=19.9885 $Y=12.6235
C30	avC9#12	GND	2.089E-16	$X=22.4775 $Y=12.2315
C31	|I3/D_nmos1v_avC_3#15	GND	7.798E-17	$X=24.6875 $Y=13.712
C32	S#4	GND	9.421E-17	$X=6.201 $Y=14.037
C33	B#1	GND	3.047E-16	$X=5.744 $Y=4.928
C34	S#1	GND	5.789E-16	$X=5.692 $Y=23.081
C35	A#1	GND	3.499E-16	$X=5.779 $Y=23.7135
C36	S#8	GND	1.697E-16	$X=7.645 $Y=23.0855
C37	A#2	GND	1.692E-16	$X=7.645 $Y=23.7155
C38	B#2	GND	1.562E-16	$X=7.6715 $Y=4.9275
C39	avC7#10	GND	2.993E-16	$X=8.9905 $Y=10.814
C40	B#3	GND	1.770E-16	$X=10.225 $Y=4.665
C41	avC7#11	GND	7.674E-17	$X=10.2245 $Y=5.5835
C42	S#9	GND	1.770E-16	$X=10.225 $Y=22.823
C43	A#3	GND	8.160E-17	$X=10.2245 $Y=23.7425
C44	avC8#11	GND	1.740E-16	$X=17.948 $Y=17.921
C45	avC8#12	GND	8.072E-17	$X=19.1815 $Y=15.997
C46	VDD#33	GND	3.377E-17	$X=7.0165 $Y=15.4615
C47	VDD#59	GND	3.122E-17	$X=10.295 $Y=7.8655
C48	VDD#17	GND	3.377E-17	$X=10.295 $Y=26.016
C49	VDD#26	GND	3.374E-17	$X=13.2435 $Y=7.8655
C50	VDD#12	GND	3.374E-17	$X=13.2435 $Y=26.016
C51	VDD#66	GND	3.377E-17	$X=15.512 $Y=6.696
C52	VDD#42	GND	3.377E-17	$X=15.512 $Y=24.8465
C53	VDD#22	GND	4.890E-17	$X=21.199 $Y=15.1515
C54	VDD#52	GND	2.497E-17	$X=21.199 $Y=17.5005
C55	VDD#1	GND	3.377E-17	$X=24.6875 $Y=15.7715
C56	|I3/D_nmos1v_avC_3#7	GND	3.669E-18	$X=20.2175 $Y=11.707
C57	S#3	GND	1.144E-16	$X=5.0735 $Y=14.0365
C58	VDD#37	GND	6.826E-17	$X=6.7585 $Y=15.0645
C59	VDD#32	GND	6.855E-16	$X=6.9965 $Y=20.7345
C60	avC7#2	GND	1.291E-16	$X=8.3845 $Y=14.0365
C61	B#4	GND	1.116E-16	$X=9.2015 $Y=4.9275
C62	avC7#12	GND	2.614E-16	$X=8.9905 $Y=6.907
C63	S#10	GND	1.161E-16	$X=9.194 $Y=23.086
C64	A#4	GND	1.161E-16	$X=9.194 $Y=23.716
C65	VDD#58	GND	9.609E-17	$X=10.9405 $Y=8.272
C66	VDD#16	GND	8.878E-17	$X=10.9405 $Y=26.43
C67	|I1/avC6#4	GND	1.043E-16	$X=11.408 $Y=4.0975
C68	|I0/avC6#4	GND	1.043E-16	$X=11.408 $Y=22.256
C69	VDD#30	GND	6.975E-17	$X=12.988 $Y=7.4645
C70	VDD#39	GND	6.975E-17	$X=12.988 $Y=25.6235
C71	VDD#25	GND	6.638E-16	$X=13.493 $Y=13.6005
C72	VDD#11	GND	5.835E-17	$X=13.488 $Y=27.3455
C73	|I1/D_nmos1v_avC_5#2	GND	9.535E-17	$X=13.696 $Y=5.2675
C74	|I0/D_nmos1v_avC_5#2	GND	9.535E-17	$X=13.696 $Y=23.426
C75	VDD#70	GND	6.826E-17	$X=15.258 $Y=6.295
C76	VDD#46	GND	6.826E-17	$X=15.258 $Y=24.4535
C77	VDD#65	GND	1.133E-16	$X=15.488 $Y=7.821
C78	VDD#41	GND	1.133E-16	$X=15.488 $Y=25.9795
C79	avC9#4	GND	5.955E-17	$X=16.773 $Y=5.2675
C80	avC8#3	GND	5.955E-17	$X=16.773 $Y=23.4265
C81	avC9#3	GND	3.306E-16	$X=17.999 $Y=7.21
C82	avC8#2	GND	1.957E-16	$X=17.9485 $Y=22.4425
C83	avC9#2	GND	3.799E-16	$X=17.9995 $Y=11.154
C84	avC8#13	GND	1.293E-16	$X=18.4655 $Y=15.9965
C85	VDD#24	GND	1.806E-16	$X=21.9475 $Y=16.0385
C86	VDD#54	GND	2.190E-17	$X=21.3675 $Y=17.9115
C87	|I3/avC7#4	GND	1.869E-16	$X=20.743 $Y=15.1615
C88	VDD#56	GND	7.253E-17	$X=20.9475 $Y=17.104
C89	VDD#7	GND	2.543E-17	$X=22.5975 $Y=18.305
C90	|I3/D_nmos1v_avC_3#2	GND	8.651E-17	$X=22.9655 $Y=14.347
C91	VDD#19	GND	6.826E-17	$X=24.4375 $Y=15.374
C92	VDD#5	GND	1.399E-16	$X=24.6675 $Y=17.1795
C93	OUT#2	GND	5.613E-17	$X=25.9275 $Y=14.347
C94	OUT#1	GND	9.142E-17	$X=27.005 $Y=14.3465
C95	S#2	GND	6.057E-16	$X=2.928 $Y=17.1425
C96	S#6	GND	5.998E-17	$X=7.008 $Y=14.0425
C97	avC7#3	GND	7.093E-17	$X=7.578 $Y=14.037
C98	avC7#5	GND	5.206E-17	$X=7.258 $Y=13.4895
C99	avC7#8	GND	8.214E-17	$X=7.2585 $Y=14.882
C100	|I0/avC6#2	GND	1.201E-16	$X=11.908 $Y=21.216
C101	|I1/avC6#2	GND	1.201E-16	$X=11.908 $Y=3.0575
C102	A#6	GND	1.964E-16	$X=10.3595 $Y=24.2945
C103	avC7#14	GND	1.884E-16	$X=10.3595 $Y=6.137
C104	S#12	GND	3.819E-16	$X=12.451 $Y=21.963
C105	B#6	GND	3.819E-16	$X=12.451 $Y=3.808
C106	|I0/D_nmos1v_avC_5#3	GND	1.105E-16	$X=12.476 $Y=23.4255
C107	|I0/D_nmos1v_avC_5#4	GND	1.677E-16	$X=11.909 $Y=24.175
C108	|I0/D_nmos1v_avC_5#6	GND	1.599E-16	$X=10.539 $Y=25.178
C109	|I0/D_nmos1v_avC_5#9	GND	5.162E-17	$X=11.9075 $Y=22.7965
C110	|I0/D_nmos1v_avC_5#12	GND	1.540E-16	$X=13.4885 $Y=25.1775
C111	|I1/D_nmos1v_avC_5#3	GND	1.105E-16	$X=12.476 $Y=5.2675
C112	|I1/D_nmos1v_avC_5#4	GND	1.677E-16	$X=11.909 $Y=6.0175
C113	|I1/D_nmos1v_avC_5#6	GND	1.599E-16	$X=10.539 $Y=7.02
C114	|I1/D_nmos1v_avC_5#9	GND	5.162E-17	$X=11.9075 $Y=4.6375
C115	|I1/D_nmos1v_avC_5#12	GND	1.544E-16	$X=13.4885 $Y=7.02
C116	|I0/D_nmos1v_avC_5#15	GND	5.999E-17	$X=15.5075 $Y=23.432
C117	|I1/D_nmos1v_avC_5#15	GND	5.999E-17	$X=15.5075 $Y=5.273
C118	avC8#4	GND	7.083E-17	$X=16.0775 $Y=23.4265
C119	avC8#6	GND	5.193E-17	$X=15.7575 $Y=22.879
C120	avC8#9	GND	8.214E-17	$X=15.758 $Y=24.271
C121	avC9#5	GND	7.083E-17	$X=16.0775 $Y=5.2675
C122	avC9#7	GND	5.193E-17	$X=15.7575 $Y=4.72
C123	avC9#10	GND	8.214E-17	$X=15.758 $Y=6.1125
C124	|I3/avC7#2	GND	2.384E-16	$X=20.993 $Y=16.156
C125	avC8#15	GND	2.864E-16	$X=19.9885 $Y=15.0035
C126	avC9#13	GND	1.964E-16	$X=21.83 $Y=13.0565
C127	|I3/D_nmos1v_avC_3#4	GND	1.919E-16	$X=21.448 $Y=14.239
C128	|I3/D_nmos1v_avC_3#6	GND	1.869E-16	$X=21.4475 $Y=12.8265
C129	|I3/D_nmos1v_avC_3#8	GND	1.141E-16	$X=20.2375 $Y=11.977
C130	|I3/D_nmos1v_avC_3#11	GND	1.175E-16	$X=22.7275 $Y=11.977
C131	VDD#2	GND	2.235E-17	$X=24.5525 $Y=16.1815
C132	VDD#6	GND	1.315E-16	$X=23.4435 $Y=17.911
C133	VDD#8	GND	1.247E-15	$X=18.049 $Y=18.646
C134	VDD#9	GND	6.571E-16	$X=18.508 $Y=28.1265
C135	VDD#10	GND	6.840E-16	$X=10.245 $Y=28.126
C136	VDD#13	GND	1.804E-16	$X=13.2395 $Y=26.4285
C137	VDD#21	GND	1.282E-16	$X=21.9475 $Y=17.2745
C138	VDD#27	GND	1.808E-16	$X=13.2395 $Y=8.272
C139	VDD#34	GND	2.235E-17	$X=6.8735 $Y=15.872
C140	VDD#43	GND	2.223E-17	$X=15.373 $Y=25.261
C141	VDD#50	GND	6.228E-17	$X=10.038 $Y=25.6235
C142	VDD#63	GND	8.240E-17	$X=10.038 $Y=7.4645
C143	VDD#67	GND	2.223E-17	$X=15.373 $Y=7.1025
C144	|I3/D_nmos1v_avC_3#14	GND	5.998E-17	$X=24.6875 $Y=14.3525
C145	OUT#3	GND	7.078E-17	$X=25.257 $Y=14.347
C146	OUT#5	GND	5.193E-17	$X=24.937 $Y=13.7995
C147	OUT#8	GND	8.214E-17	$X=24.937 $Y=15.1915
*
*
.ENDS mux_2x1
*
