*
*
*
*                       LINUX           Sun Jan 19 13:19:51 2025
*
*
*
*  PROGRAM  advgen
*
*  HSPICE LIBRARY
*
*
*

*
.SUBCKT or_gate VDD GND A B OUT
*
*
*  caps2d version: 10
*
*
*       TRANSISTOR CARDS
*
*
M|I0/avD1_1	OUT#3	avC6#15	GND#12	GND#1
+ nmos1v#20ivpcell#20gpdk090	L=0.18U	W=0.42U
+ AD=0.1176P	AS=0.1176P	PD=1.4U	PS=1.4U
+ simW=4.2e-07 fw=4.2e-07 
MavD1_1	avC6#7	A#4	GND#8	GND#1	nmos1v#20ivpcell#20gpdk090	L=0.18U
+ W=0.42U
+ AD=0.1176P	AS=0.1176P	PD=1.4U	PS=1.4U
+ simW=4.2e-07 fw=4.2e-07 
MavD1_2	avC6#10	B#2	GND#13	GND#1	nmos1v#20ivpcell#20gpdk090
+ L=0.18U	W=0.42U
+ AD=0.1176P	AS=0.1176P	PD=1.4U	PS=1.4U
+ simW=4.2e-07 fw=4.2e-07 
M|I0/avD7_1	OUT#6	avC6#13	VDD#12	VDD#1
+ pmos1v#20ivpcell#20gpdk090	L=0.18U	W=0.985U
+ AD=0.2758P	AS=0.2758P	PD=2.53U	PS=2.53U
+ simW=9.85e-07 fw=9.85e-07 
M|PM0/avD7_1	avC7	A#2	VDD#18	VDD#13	pmos1v#20ivpcell#20gpdk090
+ L=0.18U	W=0.985U
+ AD=0.2758P	AS=0.2758P	PD=2.53U	PS=2.53U
+ simW=9.85e-07 fw=9.85e-07 
M|PM1/avD7_1	avC6#3	B#4	avC7#5	VDD#8	pmos1v#20ivpcell#20gpdk090
+ L=0.18U	W=0.985U
+ AD=0.2758P	AS=0.2758P	PD=2.53U	PS=2.53U
+ simW=9.85e-07 fw=9.85e-07 
*
*
*       RESISTOR AND CAP/DIODE CARDS
*
Ri1	A#1	A	   10.4063	$mt1	$X=0.365 $Y=5.69
Ri2	B#1	B	   11.3130	$mt1	$X=1.045 $Y=2.73
Ri4	avC7#2	avC7#4	    1.9874	$mt1	$X=1.98 $Y=5.758
Ri5	avC7#4	avC7#5	    5.0000	$mt1	$X=2.39 $Y=4.3625
Ri6	avC7	avC7#2	    5.0000	$mt1	$X=2.89 $Y=6.7125
Ri7	avC6	avC6#2	   10.4667	$mt1	$X=5.03 $Y=4.04
Ri8	avC6#2	avC6#4	    1.2021	$mt1	$X=3.785 $Y=4.04
Ri10	avC6#4	avC6#6	    1.4838	$mt1	$X=2.89 $Y=3.01
Ri11	avC6#6	avC6#8	    1.2252	$mt1	$X=2.285 $Y=2.09
Ri13	avC6#6	avC6#11	    1.2719	$mt1	$X=3.53 $Y=2.09
Ri15	avC6#3	avC6#4	    5.0000	$mt1	$X=2.89 $Y=4.3625
Ri16	avC6#7	avC6#8	   15.0000	$mt1	$X=1.68 $Y=1.4
Ri17	avC6#10	avC6#11	   15.0000	$mt1	$X=4.17 $Y=1.4
Ri20	VDD#2	VDD#5	    0.2491	$mt1	$X=6.11 $Y=6.0825
Ri21	VDD#5	VDD#6	    2.2183	$mt1	$X=6.11 $Y=6.9475
Ri22	VDD#6	VDD#7	    0.4272	$mt1	$X=3.715 $Y=7.605
Ri23	VDD#7	VDD#9	    1.8320	$mt1	$X=3.39 $Y=6.43
Ri24	VDD#9	VDD#10	    0.1667	$mt1	$X=2.64 $Y=5.255
Ri25	VDD#10	VDD#8	   15.1667	$mt1	$X=2.64 $Y=5.255
Ri26	VDD#2	VDD#11	    0.5674	$mt1	$X=5.88 $Y=5.645
Ri27	VDD#11	VDD#12	    5.0000	$mt1	$X=5.88 $Y=4.9825
Ri28	VDD#6	VDD	    0.2439	$mt1	$X=4.04 $Y=7.8125
Ri29	VDD#7	VDD#14	    0.3303	$mt1	$X=3.17 $Y=7.605
Ri30	VDD#14	VDD#15	    0.1667	$mt1	$X=2.64 $Y=7.605
Ri31	VDD#15	VDD#16	    0.1667	$mt1	$X=2.64 $Y=7.605
Ri32	VDD#16	VDD#17	    0.5982	$mt1	$X=2.39 $Y=7.375
Ri33	VDD#17	VDD#18	    5.0000	$mt1	$X=2.39 $Y=6.7125
Ri34	VDD#1	VDD#2	   15.0000	$mt1	$X=6.38 $Y=5.875
Ri35	VDD#1	VDD#2	   15.0000	$mt1	$X=5.88 $Y=5.875
Ri36	VDD#8	VDD#9	   15.0000	$mt1	$X=2.89 $Y=5.255
Ri37	VDD#13	VDD#14	   15.0000	$mt1	$X=2.89 $Y=7.605
Ri38	VDD#13	VDD#16	   15.0000	$mt1	$X=2.39 $Y=7.605
Ri41	GND#2	GND#5	    0.2258	$mt1	$X=6.11 $Y=2.6
Ri42	GND#5	GND#6	    2.4550	$mt1	$X=6.11 $Y=1.575
Ri43	GND#6	GND#7	    0.2405	$mt1	$X=3.855 $Y=0.74
Ri44	GND#7	GND#9	    2.0616	$mt1	$X=2.425 $Y=0.74
Ri46	GND#2	GND#11	    0.3791	$mt1	$X=5.88 $Y=3.02
Ri47	GND#11	GND#12	   15.0000	$mt1	$X=5.88 $Y=3.4
Ri48	GND#6	GND	    0.4206	$mt1	$X=4.04 $Y=0.4
Ri49	GND#7	GND#14	    0.4073	$mt1	$X=3.67 $Y=0.995
Ri51	GND#1	GND#2	   15.0000	$mt1	$X=6.38 $Y=2.79
Ri52	GND#1	GND#2	   15.0000	$mt1	$X=5.88 $Y=2.79
Ri53	GND#8	GND#9	   15.0000	$mt1	$X=1.18 $Y=1.4
Ri54	GND#13	GND#14	   15.0000	$mt1	$X=3.67 $Y=1.4
Ri55	OUT	OUT#1	    0.3200	$mt1	$X=7.7805 $Y=4.04
Ri56	OUT#1	OUT#2	    0.7421	$mt1	$X=6.96 $Y=4.04
Ri57	OUT#2	OUT#4	    0.4205	$mt1	$X=6.38 $Y=3.795
Ri59	OUT#2	OUT#7	    0.6222	$mt1	$X=6.38 $Y=4.295
Ri61	OUT#3	OUT#4	   15.0000	$mt1	$X=6.38 $Y=3.4
Ri62	OUT#6	OUT#7	    5.0000	$mt1	$X=6.38 $Y=4.9825
Rj1	A#2	A#3	   96.0340	$poly	$X=2.64 $Y=5.995
Rj2	A#3	A#1	   65.5037	$poly	$X=1.065 $Y=5.69
Rj3	A#3	A#4	  224.0563	$poly	$X=1.43 $Y=5.615
Rj4	B#2	B#3	  132.8311	$poly	$X=3.92 $Y=2.135
Rj5	B#3	B#1	   50.2528	$poly	$X=2.35 $Y=2.73
Rj6	B#3	B#4	   60.6951	$poly	$X=2.64 $Y=2.81
Rj7	avC6#13	avC6#14	   24.8441	$poly
+ $X=6.13 $Y=4.29
Rj8	avC6#14	avC6	   61.3880	$poly	$X=5.77 $Y=4.04
Rj9	avC6#14	avC6#15	   23.7330	$poly	$X=6.13 $Y=3.8
*
*       CAPACITOR CARDS
*
*
C1	VDD	GND	3.768E-17	$X=4.0375 $Y=7.943
C2	A	GND	4.486E-17	$X=0.18 $Y=5.687
C3	B	GND	9.246E-17	$X=0.5205 $Y=2.727
C4	OUT	GND	4.063E-17	$X=7.928 $Y=4.037
C5	avC6	GND	9.405E-17	$X=5.32 $Y=4.037
C6	B#4	GND	1.437E-16	$X=2.639 $Y=4.1765
C7	A#2	GND	1.771E-16	$X=2.6395 $Y=6.4835
C8	avC6#13	GND	1.021E-16	$X=6.128 $Y=4.9695
C9	A#4	GND	2.961E-16	$X=1.4305 $Y=2.3145
C10	B#2	GND	2.086E-16	$X=3.919 $Y=1.9225
C11	avC6#15	GND	7.798E-17	$X=6.1275 $Y=3.402
C12	A#1	GND	8.595E-17	$X=0.622 $Y=5.687
C13	B#1	GND	1.410E-16	$X=1.8125 $Y=2.727
C14	VDD#8	GND	4.890E-17	$X=2.644 $Y=4.843
C15	VDD#13	GND	2.497E-17	$X=2.644 $Y=7.1905
C16	VDD#1	GND	3.377E-17	$X=6.1305 $Y=5.4625
C17	avC6#7	GND	3.669E-18	$X=1.658 $Y=1.3975
C18	VDD#10	GND	1.806E-16	$X=3.3885 $Y=5.729
C19	VDD#15	GND	2.262E-17	$X=2.808 $Y=7.6015
C20	avC7#4	GND	1.873E-16	$X=2.184 $Y=4.8515
C21	VDD#17	GND	7.253E-17	$X=2.388 $Y=6.794
C22	avC6#2	GND	8.651E-17	$X=4.406 $Y=4.037
C23	VDD#11	GND	6.826E-17	$X=5.8775 $Y=5.0645
C24	VDD#5	GND	1.399E-16	$X=6.108 $Y=6.87
C25	OUT#1	GND	5.613E-17	$X=7.368 $Y=4.037
C26	avC7#2	GND	2.383E-16	$X=2.434 $Y=5.8465
C27	A#3	GND	2.870E-16	$X=1.431 $Y=4.694
C28	B#3	GND	1.964E-16	$X=3.2715 $Y=2.747
C29	avC6#4	GND	1.919E-16	$X=2.889 $Y=3.9295
C30	avC6#6	GND	1.869E-16	$X=2.889 $Y=2.517
C31	avC6#8	GND	1.141E-16	$X=1.6785 $Y=1.6675
C32	avC6#11	GND	1.175E-16	$X=4.168 $Y=1.6675
C33	VDD#2	GND	2.235E-17	$X=5.9925 $Y=5.872
C34	VDD#6	GND	1.347E-16	$X=4.8845 $Y=7.601
C35	VDD#7	GND	1.375E-16	$X=3.3885 $Y=6.9645
C36	avC6#14	GND	5.998E-17	$X=6.1275 $Y=4.0425
C37	OUT#2	GND	7.078E-17	$X=6.6975 $Y=4.037
C38	OUT#4	GND	5.193E-17	$X=6.3775 $Y=3.4895
C39	OUT#7	GND	8.214E-17	$X=6.3775 $Y=4.882
*
*
.ENDS or_gate
*
