*
*
*
*                       LINUX           Sun Jan 19 11:38:33 2025
*
*
*
*  PROGRAM  advgen
*
*  HSPICE LIBRARY
*
*
*

*
.SUBCKT and_gate VDD GND A B OUT
*
*
*  caps2d version: 10
*
*
*       TRANSISTOR CARDS
*
*
M|I0/avD1_1	OUT#3	avC7#16	GND#11	GND#1
+ nmos1v#20ivpcell#20gpdk090	L=0.18U	W=0.42U
+ AD=0.1176P	AS=0.1176P	PD=1.4U	PS=1.4U
+ simW=4.2e-07 fw=4.2e-07 
MavD1_1	avC6	B#4	GND#7	GND#1	nmos1v#20ivpcell#20gpdk090	L=0.18U
+ W=0.42U
+ AD=0.1176P	AS=0.1176P	PD=1.4U	PS=1.4U
+ simW=4.2e-07 fw=4.2e-07 
MavD1_2	avC7#8	A#2	avC6#5	GND#1	nmos1v#20ivpcell#20gpdk090	L=0.18U
+ W=0.42U
+ AD=0.1176P	AS=0.1176P	PD=1.4U	PS=1.4U
+ simW=4.2e-07 fw=4.2e-07 
M|I0/avD7_1	OUT#6	avC7#14	VDD#14	VDD#1
+ pmos1v#20ivpcell#20gpdk090	L=0.18U	W=0.985U
+ AD=0.2758P	AS=0.2758P	PD=2.53U	PS=2.53U
+ simW=9.85e-07 fw=9.85e-07 
M|PM1/avD7_1	avC7#11	B#2	VDD#16	VDD#6
+ pmos1v#20ivpcell#20gpdk090	L=0.18U	W=0.985U
+ AD=0.2758P	AS=0.2758P	PD=2.53U	PS=2.53U
+ simW=9.85e-07 fw=9.85e-07 
M|PM0/avD7_1	avC7#5	A#4	VDD#18	VDD#11	pmos1v#20ivpcell#20gpdk090
+ L=0.18U	W=0.985U
+ AD=0.2758P	AS=0.2758P	PD=2.53U	PS=2.53U
+ simW=9.85e-07 fw=9.85e-07 
*
*
*       RESISTOR AND CAP/DIODE CARDS
*
Ri1	A#1	A	   10.4997	$mt1	$X=0.435 $Y=4.33
Ri2	B#1	B	   10.4997	$mt1	$X=0.435 $Y=3.7
Ri4	avC6#2	avC6#4	    1.4494	$mt1	$X=2.0805 $Y=2.3
Ri5	avC6#4	avC6#5	   15.0000	$mt1	$X=1.93 $Y=3.29
Ri6	avC6	avC6#2	   15.0000	$mt1	$X=2.43 $Y=1.51
Ri7	avC7	avC7#2	   10.4667	$mt1	$X=4.93 $Y=4.04
Ri8	avC7#2	avC7#3	    1.4021	$mt1	$X=3.505 $Y=4.04
Ri9	avC7#3	avC7#4	    0.6027	$mt1	$X=2.43 $Y=4.52
Ri10	avC7#4	avC7#6	    1.6402	$mt1	$X=1.745 $Y=5
Ri12	avC7#3	avC7#9	    0.4939	$mt1	$X=2.43 $Y=3.74
Ri14	avC7#4	avC7#12	    1.7802	$mt1	$X=3.22 $Y=5
Ri16	avC7#5	avC7#6	    5.0000	$mt1	$X=1.06 $Y=6.1525
Ri17	avC7#8	avC7#9	   15.0000	$mt1	$X=2.43 $Y=3.29
Ri18	avC7#11	avC7#12	    5.0000	$mt1
+ $X=4.01 $Y=6.1525
Ri21	VDD#2	VDD#5	    0.2491	$mt1	$X=6.01 $Y=6.0825
Ri22	VDD#5	VDD#7	    1.8014	$mt1	$X=6.01 $Y=6.6675
Ri23	VDD#7	VDD#8	    0.1667	$mt1	$X=3.76 $Y=7.045
Ri24	VDD#8	VDD#9	    0.1667	$mt1	$X=3.76 $Y=7.045
Ri25	VDD#9	VDD#10	    1.8000	$mt1	$X=2.303 $Y=7.045
Ri26	VDD#10	VDD#12	    0.1667	$mt1	$X=0.81 $Y=7.045
Ri27	VDD#2	VDD#13	    0.5674	$mt1	$X=5.78 $Y=5.645
Ri28	VDD#13	VDD#14	    5.0000	$mt1	$X=5.78 $Y=4.9825
Ri29	VDD#9	VDD#15	    0.5982	$mt1	$X=3.51 $Y=6.815
Ri30	VDD#15	VDD#16	    5.0000	$mt1	$X=3.51 $Y=6.1525
Ri31	VDD#9	VDD	    0.6532	$mt1	$X=4.01 $Y=7.5325
Ri32	VDD#10	VDD#17	    0.1667	$mt1	$X=0.81 $Y=7.045
Ri33	VDD#17	VDD#19	    0.5906	$mt1	$X=0.56 $Y=6.815
Ri35	VDD#1	VDD#2	   15.0000	$mt1	$X=6.28 $Y=5.875
Ri36	VDD#1	VDD#2	   15.0000	$mt1	$X=5.78 $Y=5.875
Ri37	VDD#6	VDD#7	   15.0000	$mt1	$X=4.01 $Y=7.045
Ri38	VDD#6	VDD#9	   15.0000	$mt1	$X=3.51 $Y=7.045
Ri39	VDD#11	VDD#12	   15.0000	$mt1	$X=1.06 $Y=7.045
Ri40	VDD#11	VDD#17	   15.0000	$mt1	$X=0.56 $Y=7.045
Ri41	VDD#18	VDD#19	    5.0000	$mt1	$X=0.56 $Y=6.1525
Ri44	GND#2	GND#5	    0.2258	$mt1	$X=6.01 $Y=2.6
Ri45	GND#5	GND#6	    2.3816	$mt1	$X=6.01 $Y=1.58
Ri46	GND#6	GND#8	    1.8750	$mt1	$X=2.985 $Y=0.75
Ri48	GND#2	GND#10	    0.3791	$mt1	$X=5.78 $Y=3.02
Ri49	GND#10	GND#11	   15.0000	$mt1	$X=5.78 $Y=3.4
Ri50	GND#6	GND	    0.4273	$mt1	$X=4.04 $Y=0.405
Ri51	GND#1	GND#2	   15.0000	$mt1	$X=6.28 $Y=2.79
Ri52	GND#1	GND#2	   15.0000	$mt1	$X=5.78 $Y=2.79
Ri53	GND#7	GND#8	   15.0000	$mt1	$X=1.93 $Y=1.51
Ri54	OUT	OUT#1	    0.3867	$mt1	$X=7.7305 $Y=4.04
Ri55	OUT#1	OUT#2	    0.7421	$mt1	$X=6.86 $Y=4.04
Ri56	OUT#2	OUT#4	    0.4205	$mt1	$X=6.28 $Y=3.795
Ri58	OUT#2	OUT#7	    0.6222	$mt1	$X=6.28 $Y=4.295
Ri60	OUT#3	OUT#4	   15.0000	$mt1	$X=6.28 $Y=3.4
Ri61	OUT#6	OUT#7	    5.0000	$mt1	$X=6.28 $Y=4.9825
Rj1	A#2	A#3	  137.0587	$poly	$X=2.18 $Y=4.05
Rj2	A#3	A#4	   53.4049	$poly	$X=0.81 $Y=5.22
Rj3	A#3	A#1	   27.7133	$poly	$X=0.81 $Y=4.515
Rj4	B#2	B#3	  258.2558	$poly	$X=3.76 $Y=4.165
Rj5	B#3	B#1	  234.3640	$poly	$X=1.475 $Y=2.58
Rj6	B#3	B#4	   45.1971	$poly	$X=2.18 $Y=2.51
Rj7	avC7#14	avC7#15	   24.8441	$poly
+ $X=6.03 $Y=4.29
Rj8	avC7#15	avC7	   61.3880	$poly	$X=5.67 $Y=4.04
Rj9	avC7#15	avC7#16	   23.7330	$poly	$X=6.03 $Y=3.8
*
*       CAPACITOR CARDS
*
*
C1	VDD	GND	5.764E-17	$X=4.0075 $Y=7.803
C2	A	GND	5.151E-17	$X=0.215 $Y=4.327
C3	B	GND	5.155E-17	$X=0.215 $Y=3.697
C4	OUT	GND	4.413E-17	$X=7.903 $Y=4.037
C5	avC7	GND	9.409E-17	$X=5.22 $Y=4.037
C6	A#4	GND	1.308E-16	$X=0.8095 $Y=6.0185
C7	B#2	GND	3.231E-16	$X=3.7605 $Y=5.131
C8	avC7#14	GND	1.020E-16	$X=6.028 $Y=4.9695
C9	B#4	GND	1.085E-16	$X=2.1785 $Y=1.62
C10	A#2	GND	2.177E-16	$X=2.1795 $Y=3.8365
C11	avC7#16	GND	7.796E-17	$X=6.0275 $Y=3.402
C12	B#1	GND	1.775E-16	$X=0.7455 $Y=3.4345
C13	A#1	GND	8.225E-17	$X=0.7445 $Y=4.353
C14	VDD#11	GND	3.377E-17	$X=0.816 $Y=6.631
C15	VDD#6	GND	3.374E-17	$X=3.763 $Y=6.631
C16	VDD#1	GND	3.377E-17	$X=6.0305 $Y=5.4625
C17	VDD#10	GND	8.878E-17	$X=1.4605 $Y=7.041
C18	avC6#4	GND	1.042E-16	$X=1.9285 $Y=2.867
C19	VDD#8	GND	1.803E-16	$X=3.7595 $Y=7.0405
C20	VDD#15	GND	6.975E-17	$X=3.508 $Y=6.234
C21	avC7#2	GND	9.535E-17	$X=4.216 $Y=4.037
C22	VDD#13	GND	6.826E-17	$X=5.7775 $Y=5.0645
C23	VDD#5	GND	1.132E-16	$X=6.008 $Y=6.59
C24	OUT#1	GND	5.955E-17	$X=7.293 $Y=4.037
C25	avC6#2	GND	1.200E-16	$X=2.428 $Y=1.8275
C26	A#3	GND	1.964E-16	$X=0.8795 $Y=4.906
C27	B#3	GND	3.819E-16	$X=2.971 $Y=2.577
C28	avC7#3	GND	1.105E-16	$X=2.996 $Y=4.037
C29	avC7#4	GND	1.677E-16	$X=2.429 $Y=4.7865
C30	avC7#6	GND	1.599E-16	$X=1.059 $Y=5.789
C31	avC7#9	GND	5.162E-17	$X=2.4275 $Y=3.407
C32	avC7#12	GND	1.539E-16	$X=4.0085 $Y=5.789
C33	VDD#2	GND	2.223E-17	$X=5.8925 $Y=5.872
C34	VDD#19	GND	6.228E-17	$X=0.5585 $Y=6.234
C35	avC7#15	GND	5.999E-17	$X=6.0275 $Y=4.0425
C36	OUT#2	GND	7.083E-17	$X=6.5975 $Y=4.037
C37	OUT#4	GND	5.193E-17	$X=6.2775 $Y=3.4895
C38	OUT#7	GND	8.214E-17	$X=6.2775 $Y=4.882
*
*
.ENDS and_gate
*
