*
*
*
*                       LINUX           Sun Jan 19 15:03:53 2025
*
*
*
*  PROGRAM  advgen
*
*  HSPICE LIBRARY
*
*
*

*
.SUBCKT xor_gate VDD GND A B OUT
*
*
*  caps2d version: 10
*
*
*       TRANSISTOR CARDS
*
*
M|I0/avD1_1	avC8#4	A#7	GND#22	GND#8	nmos1v#20ivpcell#20gpdk090
+ L=0.18U	W=0.42U
+ AD=0.1176P	AS=0.1176P	PD=1.4U	PS=1.4U
+ simW=4.2e-07 fw=4.2e-07 
M|I1/avD1_1	avC9#4	B#9	GND#20	GND#8	nmos1v#20ivpcell#20gpdk090
+ L=0.18U	W=0.42U
+ AD=0.1176P	AS=0.1176P	PD=1.4U	PS=1.4U
+ simW=4.2e-07 fw=4.2e-07 
MavD1_1	OUT#10	A#8	avC6#5	GND#8	nmos1v#20ivpcell#20gpdk090	L=0.18U
+ W=0.42U
+ AD=0.1176P	AS=0.1176P	PD=1.4U	PS=1.4U
+ simW=4.2e-07 fw=4.2e-07 
MavD1_2	avC6	B#12	GND#12	GND#8	nmos1v#20ivpcell#20gpdk090	L=0.18U
+ W=0.42U
+ AD=0.1176P	AS=0.1176P	PD=1.4U	PS=1.4U
+ simW=4.2e-07 fw=4.2e-07 
MavD1_3	OUT#13	avC8#10	avC7#5	GND#8	nmos1v#20ivpcell#20gpdk090
+ L=0.18U	W=0.42U
+ AD=0.1176P	AS=0.1176P	PD=1.4U	PS=1.4U
+ simW=4.2e-07 fw=4.2e-07 
MavD1_4	avC7	avC9#10	GND#1	GND#8	nmos1v#20ivpcell#20gpdk090
+ L=0.18U	W=0.42U
+ AD=0.1176P	AS=0.1176P	PD=1.4U	PS=1.4U
+ simW=4.2e-07 fw=4.2e-07 
M|I0/avD7_1	avC8#7	A#5	VDD#36	VDD#31	pmos1v#20ivpcell#20gpdk090
+ L=0.18U	W=0.985U
+ AD=0.2758P	AS=0.2758P	PD=2.53U	PS=2.53U
+ simW=9.85e-07 fw=9.85e-07 
M|I1/avD7_1	avC9#7	B#7	VDD#28	VDD#23	pmos1v#20ivpcell#20gpdk090
+ L=0.18U	W=0.985U
+ AD=0.2758P	AS=0.2758P	PD=2.53U	PS=2.53U
+ simW=9.85e-07 fw=9.85e-07 
M|PM1/avD7_1	avC10	B#10	VDD#13	VDD#6	pmos1v#20ivpcell#20gpdk090
+ L=0.18U	W=0.985U
+ AD=0.2758P	AS=0.2758P	PD=2.53U	PS=2.53U
+ simW=9.85e-07 fw=9.85e-07 
M|PM0/avD7_1	avC10#9	A#10	VDD#15	VDD#10
+ pmos1v#20ivpcell#20gpdk090	L=0.18U	W=0.985U
+ AD=0.2758P	AS=0.2758P	PD=2.53U	PS=2.53U
+ simW=9.85e-07 fw=9.85e-07 
M|PM3/avD7_1	OUT#6	avC9#12	avC10#12	VDD#1
+ pmos1v#20ivpcell#20gpdk090	L=0.18U	W=0.985U
+ AD=0.2758P	AS=0.2758P	PD=2.53U	PS=2.53U
+ simW=9.85e-07 fw=9.85e-07 
M|PM2/avD7_1	OUT#3	avC8#12	avC10#6	VDD#19
+ pmos1v#20ivpcell#20gpdk090	L=0.18U	W=0.985U
+ AD=0.2758P	AS=0.2758P	PD=2.53U	PS=2.53U
+ simW=9.85e-07 fw=9.85e-07 
*
*
*       RESISTOR AND CAP/DIODE CARDS
*
Ri1	A#1	A#2	   11.1816	$mt1	$X=0.855 $Y=9.26
Ri2	A#2	A	    0.1203	$mt1	$X=0.175 $Y=8.56
Ri3	A#2	A#3	    1.4150	$mt1	$X=0.29 $Y=7.61
Ri4	A#3	A#4	   10.4667	$mt1	$X=0.92 $Y=6.66
Ri5	B#1	B#2	   11.0250	$mt1	$X=1.345 $Y=3.9
Ri6	B#2	B	    0.6403	$mt1	$X=0.565 $Y=2.855
Ri7	B#2	B#3	   11.3869	$mt1	$X=1.07 $Y=1.8125
Ri8	B#5	B#6	   10.4667	$mt1	$X=4.08 $Y=3.9
Ri9	B#6	B#4	    0.8600	$mt1	$X=3.085 $Y=3.9
Ri10	avC9	avC9#2	   10.9514	$mt1	$X=7.06 $Y=3.395
Ri11	avC9#2	avC9#3	    0.7421	$mt1	$X=6.01 $Y=3.9
Ri12	avC9#3	avC9#5	    0.4205	$mt1	$X=5.43 $Y=3.655
Ri14	avC9#3	avC9#8	    0.6222	$mt1	$X=5.43 $Y=4.155
Ri16	avC9#4	avC9#5	   15.0000	$mt1	$X=5.43 $Y=3.26
Ri17	avC9#7	avC9#8	    5.0000	$mt1	$X=5.43 $Y=4.8425
Ri18	avC8	avC8#2	   13.4361	$mt1	$X=5.855 $Y=8.09
Ri19	avC8#2	avC8#3	    0.7421	$mt1	$X=2.85 $Y=6.66
Ri20	avC8#3	avC8#5	    0.4205	$mt1	$X=2.27 $Y=6.415
Ri22	avC8#3	avC8#8	    0.6222	$mt1	$X=2.27 $Y=6.915
Ri24	avC8#4	avC8#5	   15.0000	$mt1	$X=2.27 $Y=6.02
Ri25	avC8#7	avC8#8	    5.0000	$mt1	$X=2.27 $Y=7.6025
Ri27	avC6#2	avC6#4	    1.8694	$mt1	$X=7.58 $Y=2.5745
Ri28	avC6#4	avC6#5	   15.0000	$mt1	$X=7.58 $Y=3.91
Ri29	avC6	avC6#2	   15.0000	$mt1	$X=8.08 $Y=1.5
Ri31	GND#2	GND#4	    1.9550	$mt1	$X=8.9405 $Y=0.53
Ri32	GND#4	GND#5	    1.2439	$mt1	$X=6.6425 $Y=0.53
Ri33	GND#5	GND#6	    0.3572	$mt1	$X=5.4325 $Y=0.53
Ri34	GND#6	GND#7	    5.0683	$mt1	$X=3.58 $Y=0.53
Ri35	GND#7	GND#9	    0.2258	$mt1	$X=2 $Y=5.22
Ri38	GND#4	GND#13	    0.6139	$mt1	$X=7.58 $Y=0.94
Ri40	GND#5	GND	    0.2806	$mt1	$X=5.705 $Y=0.295
Ri41	GND#6	GND#15	    1.1273	$mt1	$X=5.16 $Y=1.4
Ri42	GND#15	GND#16	    0.2258	$mt1	$X=5.16 $Y=2.46
Ri45	GND#16	GND#19	    0.3791	$mt1	$X=4.93 $Y=2.88
Ri46	GND#19	GND#20	   15.0000	$mt1	$X=4.93 $Y=3.26
Ri47	GND#9	GND#21	    0.3791	$mt1	$X=1.77 $Y=5.64
Ri48	GND#21	GND#22	   15.0000	$mt1	$X=1.77 $Y=6.02
Ri49	GND#1	GND#2	   15.0000	$mt1	$X=9.6 $Y=1.5
Ri50	GND#8	GND#9	   15.0000	$mt1	$X=2.27 $Y=5.41
Ri51	GND#8	GND#9	   15.0000	$mt1	$X=1.77 $Y=5.41
Ri52	GND#12	GND#13	   15.0000	$mt1	$X=7.58 $Y=1.5
Ri53	GND#8	GND#16	   15.0000	$mt1	$X=5.43 $Y=2.65
Ri54	GND#8	GND#16	   15.0000	$mt1	$X=4.93 $Y=2.65
Ri56	avC10#2	avC10#4	    1.3900	$mt1
+ $X=9.6655 $Y=9.01
Ri57	avC10#4	avC10#5	    1.2422	$mt1
+ $X=8.87 $Y=8.07
Ri58	avC10#5	avC10#7	6.458E-02	$mt1
+ $X=8.47 $Y=6.695
Ri60	avC10#4	avC10#10	    1.1100	$mt1
+ $X=8.47 $Y=9.01
Ri62	avC10#5	avC10#13	5.812E-02	$mt1
+ $X=9.23 $Y=6.695
Ri64	avC10	avC10#2	    5.0000	$mt1	$X=10.09 $Y=9.9325
Ri65	avC10#6	avC10#7	    5.0000	$mt1
+ $X=8.07 $Y=6.6925
Ri66	avC10#9	avC10#10	    5.0000	$mt1
+ $X=8.07 $Y=9.9325
Ri67	avC10#12	avC10#13	    5.0000	$mt1
+ $X=9.59 $Y=6.6925
Ri69	avC7#2	avC7#4	    1.8694	$mt1	$X=9.6 $Y=2.5745
Ri70	avC7#4	avC7#5	   15.0000	$mt1	$X=9.6 $Y=3.91
Ri71	avC7	avC7#2	   15.0000	$mt1	$X=10.1 $Y=1.5
Ri72	VDD#2	VDD#3	    0.1667	$mt1	$X=9.8395 $Y=7.5845
Ri73	VDD#3	VDD#4	    0.1667	$mt1	$X=9.8395 $Y=7.5845
Ri74	VDD#4	VDD#5	    3.0561	$mt1	$X=10.69 $Y=9.2045
Ri75	VDD#5	VDD#7	    0.1667	$mt1	$X=9.84 $Y=10.825
Ri76	VDD#7	VDD#8	    0.3333	$mt1	$X=9.84 $Y=10.825
Ri77	VDD#8	VDD#9	    1.1800	$mt1	$X=8.848 $Y=10.825
Ri78	VDD#9	VDD#11	    0.1667	$mt1	$X=7.82 $Y=10.825
Ri79	VDD#8	VDD#12	    0.5982	$mt1	$X=9.59 $Y=10.595
Ri80	VDD#12	VDD#13	    5.0000	$mt1	$X=9.59 $Y=9.9325
Ri81	VDD#9	VDD#14	    0.1667	$mt1	$X=7.82 $Y=10.825
Ri82	VDD#14	VDD#16	    0.5906	$mt1	$X=7.57 $Y=10.595
Ri84	VDD#16	VDD#18	    1.5682	$mt1	$X=7.57 $Y=8.5425
Ri86	VDD#18	VDD#21	    0.2533	$mt1	$X=7.82 $Y=7.585
Ri87	VDD#21	VDD#22	    2.5280	$mt1	$X=6.335 $Y=7.585
Ri88	VDD#22	VDD#24	    0.2491	$mt1	$X=5.16 $Y=5.9425
Ri91	VDD#24	VDD#27	    0.5674	$mt1	$X=4.93 $Y=5.505
Ri92	VDD#27	VDD#28	    5.0000	$mt1	$X=4.93 $Y=4.8425
Ri93	VDD#14	VDD#29	    1.2403	$mt1	$X=6.6075 $Y=10.825
Ri94	VDD#29	VDD#30	    3.7083	$mt1	$X=3.8525 $Y=10.825
Ri95	VDD#30	VDD#32	    0.2491	$mt1	$X=2 $Y=8.7025
Ri98	VDD#32	VDD#35	    0.5674	$mt1	$X=1.77 $Y=8.265
Ri99	VDD#35	VDD#36	    5.0000	$mt1	$X=1.77 $Y=7.6025
Ri100	VDD#29	VDD	    0.3173	$mt1	$X=5.705 $Y=11.0875
Ri101	VDD#1	VDD#2	   15.0000	$mt1	$X=9.59 $Y=7.585
Ri102	VDD#1	VDD#4	   15.0000	$mt1	$X=10.09 $Y=7.585
Ri103	VDD#6	VDD#7	   15.0000	$mt1	$X=10.09 $Y=10.825
Ri104	VDD#6	VDD#8	   15.0000	$mt1	$X=9.59 $Y=10.825
Ri105	VDD#10	VDD#11	   15.0000	$mt1	$X=8.07 $Y=10.825
Ri106	VDD#10	VDD#14	   15.0000	$mt1	$X=7.57 $Y=10.825
Ri107	VDD#15	VDD#16	    5.0000	$mt1	$X=7.57 $Y=9.9325
Ri108	VDD#19	VDD#18	   15.0000	$mt1	$X=8.07 $Y=7.585
Ri109	VDD#19	VDD#21	   15.0000	$mt1	$X=7.57 $Y=7.585
Ri110	VDD#23	VDD#24	   15.0000	$mt1	$X=5.43 $Y=5.735
Ri111	VDD#23	VDD#24	   15.0000	$mt1	$X=4.93 $Y=5.735
Ri112	VDD#31	VDD#32	   15.0000	$mt1	$X=2.27 $Y=8.495
Ri113	VDD#31	VDD#32	   15.0000	$mt1	$X=1.77 $Y=8.495
Ri114	OUT	OUT#1	    0.8369	$mt1	$X=10.7205 $Y=5.705
Ri115	OUT#1	OUT#2	    0.8005	$mt1	$X=9.485 $Y=5.705
Ri116	OUT#2	OUT#4	    1.4933	$mt1	$X=8.225 $Y=5.705
Ri118	OUT#1	OUT#7	    0.6256	$mt1	$X=10.09 $Y=5.9825
Ri120	OUT#2	OUT#9	    0.6794	$mt1	$X=8.88 $Y=5.1475
Ri121	OUT#9	OUT#11	    0.9452	$mt1	$X=8.48 $Y=4.59
Ri123	OUT#9	OUT#14	    1.2252	$mt1	$X=9.49 $Y=4.59
Ri125	OUT#3	OUT#4	    5.0000	$mt1	$X=7.57 $Y=6.6925
Ri126	OUT#6	OUT#7	    5.0000	$mt1	$X=10.09 $Y=6.6925
Ri127	OUT#10	OUT#11	   15.0000	$mt1	$X=8.08 $Y=3.91
Ri128	OUT#13	OUT#14	   15.0000	$mt1	$X=10.1 $Y=3.91
Rj1	A#5	A#6	   24.8441	$poly	$X=2.02 $Y=6.91
Rj2	A#6	A#4	   61.3880	$poly	$X=1.66 $Y=6.66
Rj3	A#6	A#7	   23.7330	$poly	$X=2.02 $Y=6.42
Rj4	B#4	B#1	   77.0871	$poly	$X=2.03 $Y=3.9
Rj5	B#7	B#8	   24.8441	$poly	$X=5.18 $Y=4.15
Rj6	B#8	B#5	   61.3880	$poly	$X=4.82 $Y=3.9
Rj7	B#8	B#9	   23.7330	$poly	$X=5.18 $Y=3.66
Rj8	A#8	A#9	  316.0653	$poly	$X=7.83 $Y=4.33
Rj9	A#9	A#1	  562.3640	$poly	$X=6.91 $Y=9.14
Rj10	A#9	A#10	   69.1178	$poly	$X=6.98 $Y=8.98
Rj11	avC8#10	avC8#11	  130.9869	$poly
+ $X=9.85 $Y=4.695
Rj12	avC8#11	avC8	  393.9753	$poly	$X=8.65 $Y=6.745
Rj13	avC8#11	avC8#12	   88.2091	$poly
+ $X=8.255 $Y=5.36
Rj14	avC9#10	avC9#11	   61.1821	$poly
+ $X=9.85 $Y=2.255
Rj15	avC9#11	avC9	  268.3605	$poly	$X=8.47 $Y=2.89
Rj16	avC9#11	avC9#12	  257.7100	$poly
+ $X=10.24 $Y=2.89
Rj17	B#10	B#11	  717.2082	$poly	$X=9.84 $Y=8.965
Rj18	B#11	B#3	  665.7767	$poly	$X=4.465 $Y=0.77
Rj19	B#11	B#12	   26.3083	$poly	$X=7.83 $Y=0.84
*
*       CAPACITOR CARDS
*
*
C1	VDD	GND	4.173E-17	$X=5.7025 $Y=11.2455
C2	A	GND	3.049E-17	$X=0.085 $Y=8.557
C3	B	GND	5.878E-17	$X=0.2805 $Y=2.8525
C4	OUT	GND	7.499E-17	$X=11.063 $Y=5.702
C5	avC8	GND	4.645E-16	$X=7.027 $Y=8.085
C6	avC9	GND	2.246E-16	$X=7.438 $Y=3.0265
C7	A#5	GND	1.014E-16	$X=2.019 $Y=7.5895
C8	B#7	GND	1.021E-16	$X=5.1785 $Y=4.83
C9	avC8#12	GND	1.730E-16	$X=7.8185 $Y=6.419
C10	A#10	GND	1.525E-16	$X=7.8185 $Y=9.743
C11	avC9#12	GND	3.950E-16	$X=10.233 $Y=5.756
C12	B#10	GND	7.814E-16	$X=10.439 $Y=8.3915
C13	A#7	GND	7.794E-17	$X=2.0185 $Y=6.022
C14	B#9	GND	7.787E-17	$X=5.178 $Y=3.262
C15	B#12	GND	8.519E-17	$X=7.8275 $Y=1.47
C16	A#8	GND	3.761E-16	$X=7.3695 $Y=4.6265
C17	avC9#10	GND	1.207E-16	$X=9.8475 $Y=1.6795
C18	avC8#10	GND	1.856E-16	$X=9.8475 $Y=4.369
C19	B#3	GND	4.657E-16	$X=1.947 $Y=0.9985
C20	A#4	GND	8.967E-17	$X=1.211 $Y=6.657
C21	A#1	GND	3.294E-16	$X=1.977 $Y=9.255
C22	B#1	GND	1.452E-16	$X=1.5265 $Y=3.897
C23	B#4	GND	1.246E-16	$X=2.5695 $Y=3.897
C24	B#5	GND	9.403E-17	$X=4.3705 $Y=3.897
C25	VDD#31	GND	3.377E-17	$X=2.026 $Y=8.081
C26	VDD#23	GND	3.377E-17	$X=5.183 $Y=5.3235
C27	VDD#19	GND	4.695E-17	$X=7.821 $Y=7.172
C28	VDD#10	GND	2.554E-17	$X=7.821 $Y=10.409
C29	VDD#1	GND	3.895E-17	$X=9.839 $Y=7.172
C30	VDD#6	GND	2.499E-17	$X=9.839 $Y=10.409
C31	A#3	GND	1.101E-16	$X=0.289 $Y=7.0615
C32	VDD#35	GND	6.826E-17	$X=1.7685 $Y=7.684
C33	VDD#30	GND	2.240E-16	$X=2 $Y=9.7895
C34	avC8#2	GND	2.512E-16	$X=4.4495 $Y=7.371
C35	B#6	GND	6.812E-17	$X=3.581 $Y=3.897
C36	VDD#27	GND	6.826E-17	$X=4.928 $Y=4.9245
C37	VDD#22	GND	1.729E-16	$X=5.1585 $Y=6.7905
C38	avC9#2	GND	1.106E-16	$X=6.5035 $Y=3.897
C39	VDD#18	GND	2.712E-16	$X=7.5685 $Y=8.029
C40	VDD#9	GND	1.063E-16	$X=7.568 $Y=10.736
C41	avC6#4	GND	1.500E-16	$X=7.578 $Y=3.3445
C42	VDD#3	GND	2.060E-16	$X=10.6875 $Y=8.3605
C43	VDD#5	GND	2.183E-16	$X=9.588 $Y=10.735
C44	VDD#12	GND	7.279E-17	$X=9.5875 $Y=10.014
C45	avC7#4	GND	1.252E-16	$X=9.5975 $Y=3.3445
C46	A#2	GND	1.358E-16	$X=0.2895 $Y=8.4215
C47	B#2	GND	1.533E-16	$X=1.0695 $Y=2.7005
C48	A#6	GND	5.720E-17	$X=2.018 $Y=6.6625
C49	B#8	GND	5.999E-17	$X=5.178 $Y=3.9025
C50	avC9#3	GND	7.077E-17	$X=5.748 $Y=3.897
C51	avC9#5	GND	5.190E-17	$X=5.4275 $Y=3.3495
C52	avC9#8	GND	8.214E-17	$X=5.428 $Y=4.742
C53	avC8#3	GND	6.874E-17	$X=2.588 $Y=6.657
C54	avC8#5	GND	5.193E-17	$X=2.268 $Y=6.1095
C55	avC8#8	GND	8.101E-17	$X=2.2685 $Y=7.502
C56	avC6#2	GND	1.405E-16	$X=7.828 $Y=2.3375
C57	A#9	GND	6.012E-16	$X=6.9105 $Y=7.7515
C58	avC10#2	GND	1.692E-16	$X=10.0875 $Y=9.6835
C59	avC10#4	GND	1.608E-16	$X=8.868 $Y=8.5665
C60	avC10#5	GND	1.824E-16	$X=8.869 $Y=7.1295
C61	avC10#7	GND	1.229E-16	$X=8.2985 $Y=6.691
C62	avC10#10	GND	1.278E-16	$X=8.068 $Y=9.6835
C63	avC10#13	GND	1.198E-16	$X=9.378 $Y=6.691
C64	avC7#2	GND	1.489E-16	$X=9.8475 $Y=2.3175
C65	VDD#16	GND	1.300E-16	$X=7.568 $Y=9.565
C66	VDD#24	GND	2.235E-17	$X=5.043 $Y=5.732
C67	VDD#29	GND	2.547E-16	$X=4.3005 $Y=10.8195
C68	VDD#32	GND	2.521E-17	$X=1.883 $Y=8.4915
C69	avC8#11	GND	4.371E-16	$X=9.2285 $Y=5.356
C70	avC9#11	GND	4.511E-16	$X=10.238 $Y=2.8875
C71	B#11	GND	1.035E-15	$X=7.832 $Y=0.8665
C72	OUT#1	GND	1.057E-16	$X=10.0875 $Y=5.81
C73	OUT#2	GND	1.425E-16	$X=8.878 $Y=5.4535
C74	OUT#4	GND	1.615E-16	$X=7.568 $Y=6.4115
C75	OUT#7	GND	9.333E-17	$X=10.0875 $Y=6.5805
C76	OUT#9	GND	1.183E-16	$X=8.878 $Y=4.8355
C77	OUT#11	GND	8.359E-17	$X=8.0775 $Y=4.172
C78	OUT#14	GND	1.049E-16	$X=10.0975 $Y=4.172
*
*
.ENDS xor_gate
*
